<?xml version="1.0"?>
<!-- generated on 2013-07-08 09:38:24.337771 by $Id: randomTrips.py 13811 2013-05-01 20:31:43Z behrisch $ -->
<trips>
    <trip id="0" depart="0.00" from="26743564" to="-62091790#4" />
    <trip id="1" depart="0.00" from="24815726#1" to="-23227404#0" />
    <trip id="2" depart="0.00" from="43061999#1" to="7980566#1" />
    <trip id="3" depart="0.00" from="-43290819#1" to="146536189#1" />
    <trip id="4" depart="0.00" from="-112610985" to="23729243" />
    <trip id="5" depart="0.00" from="134553221#1" to="134651152#2" />
    <trip id="6" depart="0.00" from="-112602530" to="-23227404#3" />
    <trip id="7" depart="0.00" from="134580469#0" to="24606622#0" />
    <trip id="8" depart="0.00" from="35361323#0" to="43061150#1" />
    <trip id="9" depart="0.00" from="164111015" to="-165419180" />
    <trip id="10" depart="0.00" from="8311400" to="-15243017" />
    <trip id="11" depart="0.00" from="-4011920#1" to="-149762814" />
    <trip id="12" depart="0.00" from="30325860#1" to="-23729251#3" />
    <trip id="13" depart="0.00" from="-87605254#2" to="141633904#0" />
    <trip id="14" depart="0.00" from="23331418#1" to="164070448#2" />
    <trip id="15" depart="0.00" from="109301504" to="-35875008#1" />
    <trip id="16" depart="0.00" from="-112602530" to="115908346" />
    <trip id="17" depart="0.00" from="5110289#0" to="-27625564#2" />
    <trip id="18" depart="0.00" from="-53903492#0" to="134651159#0" />
    <trip id="19" depart="0.00" from="134408764#3" to="23227576#6" />
    <trip id="20" depart="0.00" from="45178844" to="141634886#12" />
    <trip id="21" depart="0.00" from="35361602" to="-4520100" />
    <trip id="22" depart="0.00" from="27638652#1" to="-43375365" />
    <trip id="23" depart="0.00" from="25096206#1" to="43015733" />
    <trip id="24" depart="0.00" from="111024969#1" to="-26612692" />
    <trip id="25" depart="0.00" from="43290819#1" to="4604996" />
    <trip id="26" depart="0.00" from="112610977#1" to="-87605253" />
    <trip id="27" depart="0.00" from="4494801#1" to="25686851" />
    <trip id="28" depart="0.00" from="42359830" to="9823618#0" />
    <trip id="29" depart="0.00" from="141633905#7" to="57742681#0" />
    <trip id="30" depart="0.00" from="111655182#2" to="165990907#2" />
    <trip id="31" depart="0.00" from="8432336" to="-120458051#3" />
    <trip id="32" depart="0.00" from="145014444#8" to="-27625579" />
    <trip id="33" depart="0.00" from="111767986" to="134235049#7" />
    <trip id="34" depart="0.00" from="111655184#0" to="100183072" />
    <trip id="35" depart="0.00" from="23083969" to="24606605" />
    <trip id="36" depart="0.00" from="97828903" to="-23227480" />
    <trip id="37" depart="0.00" from="-27596760#1" to="45178854" />
    <trip id="38" depart="0.00" from="40491985#0" to="145012912#1" />
    <trip id="39" depart="0.00" from="-61684953" to="163757292" />
    <trip id="40" depart="0.00" from="137134716#5" to="134651152#2" />
    <trip id="41" depart="0.00" from="42453459#1" to="4868905#0" />
    <trip id="42" depart="0.00" from="53869266" to="134580469#1" />
    <trip id="43" depart="0.00" from="-37335879#2" to="23227359#0" />
    <trip id="44" depart="0.00" from="22811614" to="-45178853" />
    <trip id="45" depart="0.00" from="-89873771" to="85847370#0" />
    <trip id="46" depart="0.00" from="25096222#2" to="111768000#2" />
    <trip id="47" depart="0.00" from="4018845#2" to="-115908912#4" />
    <trip id="48" depart="0.00" from="-163757323#1" to="4519611" />
    <trip id="49" depart="0.00" from="42453343" to="89873766#4" />
    <trip id="50" depart="0.00" from="-24606658#1" to="147175290#1" />
    <trip id="51" depart="0.00" from="-35875008#4" to="-43290818#1" />
    <trip id="52" depart="0.00" from="-145016432#1" to="58666558#3" />
    <trip id="53" depart="0.00" from="-145016429#4" to="37733505#0" />
    <trip id="54" depart="0.00" from="-120363502#0" to="14350133#0" />
    <trip id="55" depart="0.00" from="-31898310" to="24971163#0" />
    <trip id="56" depart="0.00" from="137135364#0" to="35361323#2" />
    <trip id="57" depart="0.00" from="-164070436#1" to="-4494327#4" />
    <trip id="58" depart="0.00" from="86575270" to="141633903#1" />
    <trip id="59" depart="0.00" from="164070449#2" to="-45178853" />
    <trip id="60" depart="0.00" from="-38001045#1" to="156996313#0" />
    <trip id="61" depart="0.00" from="143276335#3" to="25096222#2" />
    <trip id="62" depart="0.00" from="-4520074" to="27624828#1" />
    <trip id="63" depart="0.00" from="-30704082#4" to="96017784" />
    <trip id="64" depart="0.00" from="58666559" to="-120248977#2" />
    <trip id="65" depart="0.00" from="111655184#0" to="-37733505#0" />
    <trip id="66" depart="0.00" from="164111026" to="12543636#9" />
    <trip id="67" depart="0.00" from="146536189#3" to="-32780443#2" />
    <trip id="68" depart="0.00" from="134641012#2" to="-39915680#1" />
    <trip id="69" depart="0.00" from="53886624" to="23084109#0" />
    <trip id="70" depart="0.00" from="148126139" to="117087514" />
    <trip id="71" depart="0.00" from="28100366" to="-141634886#9" />
    <trip id="72" depart="0.00" from="-32780443#5" to="62091785#1" />
    <trip id="73" depart="0.00" from="4868920" to="-31009602#1" />
    <trip id="74" depart="0.00" from="-141634886#0" to="-31898400#3" />
    <trip id="75" depart="0.00" from="164111017#0" to="42453459#0" />
    <trip id="76" depart="0.00" from="-58666561#2" to="42453459#1" />
    <trip id="77" depart="0.00" from="115896294#5" to="4858691#1" />
    <trip id="78" depart="0.00" from="4018825#10" to="-143276335#1" />
    <trip id="79" depart="0.00" from="-142387172#1" to="24712098#0" />
    <trip id="80" depart="0.00" from="144649805" to="4494477#0" />
    <trip id="81" depart="0.00" from="-57742687" to="164473828" />
    <trip id="82" depart="0.00" from="25096222#1" to="146379326#2" />
    <trip id="83" depart="0.00" from="156996313#0" to="134235048#1" />
    <trip id="84" depart="0.00" from="-43061150#1" to="-115896303#1" />
    <trip id="85" depart="0.00" from="4494327#1" to="7980558#0" />
    <trip id="86" depart="0.00" from="-50845223#2" to="141634886#7" />
    <trip id="87" depart="0.00" from="137134711#2" to="134407835#0" />
    <trip id="88" depart="0.00" from="24606640#0" to="35361323#1" />
    <trip id="89" depart="0.00" from="-161826810#1" to="165990906#0" />
    <trip id="90" depart="0.00" from="45744007" to="149768939" />
    <trip id="91" depart="0.00" from="137134711#2" to="-26743563#1" />
    <trip id="92" depart="0.00" from="142492944" to="164473826#1" />
    <trip id="93" depart="0.00" from="27755548#1" to="4519612#3" />
    <trip id="94" depart="0.00" from="42453459#0" to="53771531" />
    <trip id="95" depart="0.00" from="-164013615#4" to="-166623696#2" />
    <trip id="96" depart="0.00" from="57742680#9" to="112602530" />
    <trip id="97" depart="0.00" from="32263849#3" to="22817819#1" />
    <trip id="98" depart="0.00" from="30979571" to="-57742680#1" />
    <trip id="99" depart="0.00" from="-43916252" to="165090440" />
</trips>