<?xml version="1.0"?>
<!-- generated on 2013-07-08 09:49:44.373732 by $Id: randomTrips.py 13811 2013-05-01 20:31:43Z behrisch $ -->
<trips>
    <trip id="0" depart="0.00" from="164111019#3" to="-115896297" />
    <trip id="1" depart="0.00" from="35875021#3" to="134550448" />
    <trip id="2" depart="0.00" from="-112602526#6" to="151999598#0" />
    <trip id="3" depart="0.00" from="8132446#6" to="43062000" />
    <trip id="4" depart="0.00" from="-164111018#1" to="-57742680#3" />
    <trip id="5" depart="0.00" from="148358570#1" to="152008940" />
    <trip id="6" depart="0.00" from="-145016432#5" to="137191640#2" />
    <trip id="7" depart="0.00" from="164013611#1" to="162729497#1" />
    <trip id="8" depart="0.00" from="47076818#1" to="-53141866#0" />
    <trip id="9" depart="0.00" from="7980542" to="4877686#1" />
    <trip id="10" depart="0.00" from="117238916" to="43375972#1" />
    <trip id="11" depart="0.00" from="-23084079#2" to="145012680#1" />
    <trip id="12" depart="0.00" from="145019295#1" to="134553222#0" />
    <trip id="13" depart="0.00" from="145012768#0" to="-143117592" />
    <trip id="14" depart="0.00" from="165090432#3" to="-164013604" />
    <trip id="15" depart="0.00" from="37337308#3" to="-32780449" />
    <trip id="16" depart="0.00" from="163757284#0" to="5110289#0" />
    <trip id="17" depart="0.00" from="32780446" to="53771529#1" />
    <trip id="18" depart="0.00" from="134580474" to="4018785#1" />
    <trip id="19" depart="0.00" from="32780443#1" to="43015611#3" />
    <trip id="20" depart="0.00" from="56314378" to="59242849" />
    <trip id="21" depart="0.00" from="164111032" to="141633903#1" />
    <trip id="22" depart="0.00" from="31305447#0" to="27755548#1" />
    <trip id="23" depart="0.00" from="166532727#2" to="-4877646#0" />
    <trip id="24" depart="0.00" from="-23227351" to="145014444#6" />
    <trip id="25" depart="0.00" from="45672229#1" to="-44148009#1" />
    <trip id="26" depart="0.00" from="166039368#1" to="-32780443#2" />
    <trip id="27" depart="0.00" from="112602526#6" to="145014444#7" />
    <trip id="28" depart="0.00" from="-34411515#1" to="24971165#1" />
    <trip id="29" depart="0.00" from="166532727#0" to="23227404#8" />
    <trip id="30" depart="0.00" from="134407088#1" to="33439272#0" />
    <trip id="31" depart="0.00" from="8432335#1" to="35875008#6" />
    <trip id="32" depart="0.00" from="55283910" to="-27626059#1" />
    <trip id="33" depart="0.00" from="-15243017" to="-43165905#1" />
    <trip id="34" depart="0.00" from="58666561#0" to="-112602530" />
    <trip id="35" depart="0.00" from="-25816209#1" to="4018788#3" />
    <trip id="36" depart="0.00" from="-43290818#0" to="23331418#0" />
    <trip id="37" depart="0.00" from="165090431#2" to="37669517#0" />
    <trip id="38" depart="0.00" from="141134526#1" to="145469493" />
    <trip id="39" depart="0.00" from="43144536#1" to="-53264702#5" />
    <trip id="40" depart="0.00" from="-34411512#2" to="165090432#4" />
    <trip id="41" depart="0.00" from="4868905#2" to="115346437#5" />
    <trip id="42" depart="0.00" from="45178854" to="134238311#2" />
    <trip id="43" depart="0.00" from="-45178856" to="134397740#0" />
    <trip id="44" depart="0.00" from="4858692#0" to="24606606#1" />
    <trip id="45" depart="0.00" from="-147680936" to="54643434#2" />
    <trip id="46" depart="0.00" from="-145016429#0" to="143274294#1" />
    <trip id="47" depart="0.00" from="-145017163#1" to="-139764156" />
    <trip id="48" depart="0.00" from="-4857494" to="-14350356#0" />
    <trip id="49" depart="0.00" from="4858684#2" to="120458051#0" />
    <trip id="50" depart="0.00" from="23227712#1" to="26743563#2" />
    <trip id="51" depart="0.00" from="141633904#1" to="-145016429#1" />
    <trip id="52" depart="0.00" from="23227412#0" to="-111768000#4" />
    <trip id="53" depart="0.00" from="144649807" to="145019295#1" />
    <trip id="54" depart="0.00" from="145593786" to="-8432337#1" />
    <trip id="55" depart="0.00" from="134235048#7" to="8311398" />
    <trip id="56" depart="0.00" from="145019300#7" to="53869268" />
    <trip id="57" depart="0.00" from="75902816#1" to="115346441#1" />
    <trip id="58" depart="0.00" from="134407087#0" to="-89873771" />
    <trip id="59" depart="0.00" from="-164013614" to="-4494327#2" />
    <trip id="60" depart="0.00" from="112602522#2" to="4018845#5" />
    <trip id="61" depart="0.00" from="4877686#1" to="51855669#0" />
    <trip id="62" depart="0.00" from="53264702#10" to="-56935336" />
    <trip id="63" depart="0.00" from="4018816#1" to="145012914#0" />
    <trip id="64" depart="0.00" from="164111019#1" to="-38000392#0" />
    <trip id="65" depart="0.00" from="145016429#2" to="45178856" />
    <trip id="66" depart="0.00" from="-24971165#0" to="-43325364#1" />
    <trip id="67" depart="0.00" from="27745990#2" to="164111020#0" />
    <trip id="68" depart="0.00" from="45792298#0" to="4868910" />
    <trip id="69" depart="0.00" from="166039362#0" to="-58637181" />
    <trip id="70" depart="0.00" from="80861388#0" to="145018316#0" />
    <trip id="71" depart="0.00" from="-145016432#7" to="62091788#1" />
    <trip id="72" depart="0.00" from="-23227597" to="141633904#0" />
    <trip id="73" depart="0.00" from="165990906#0" to="23227671#2" />
    <trip id="74" depart="0.00" from="142387172#1" to="109301000#1" />
    <trip id="75" depart="0.00" from="42453459#2" to="165090432#0" />
    <trip id="76" depart="0.00" from="4018785#0" to="-8311371" />
    <trip id="77" depart="0.00" from="134235048#5" to="-4520100" />
    <trip id="78" depart="0.00" from="49357165#0" to="134235049#1" />
    <trip id="79" depart="0.00" from="45178844" to="-27745992" />
    <trip id="80" depart="0.00" from="-8423863" to="164070449#1" />
    <trip id="81" depart="0.00" from="-115896301" to="-53264702#8" />
    <trip id="82" depart="0.00" from="134552888#0" to="-43144536#0" />
    <trip id="83" depart="0.00" from="-4877669#1" to="121498328" />
    <trip id="84" depart="0.00" from="-23729251#2" to="134550444#2" />
    <trip id="85" depart="0.00" from="-145016432#7" to="147175268#0" />
    <trip id="86" depart="0.00" from="-35361323#3" to="134765991#4" />
    <trip id="87" depart="0.00" from="-160615603" to="134235048#7" />
    <trip id="88" depart="0.00" from="164111017#0" to="4520048#1" />
    <trip id="89" depart="0.00" from="145012912#0" to="4520096" />
    <trip id="90" depart="0.00" from="120458054#1" to="145012768#3" />
    <trip id="91" depart="0.00" from="62091790#12" to="-44028240#1" />
    <trip id="92" depart="0.00" from="-32780452" to="32780443#1" />
    <trip id="93" depart="0.00" from="43375972#0" to="-80861389" />
    <trip id="94" depart="0.00" from="4683936#0" to="-140773469" />
    <trip id="95" depart="0.00" from="23331418#1" to="32780443#5" />
    <trip id="96" depart="0.00" from="4494477#1" to="141634886#7" />
    <trip id="97" depart="0.00" from="32780443#6" to="23227404#3" />
    <trip id="98" depart="0.00" from="10516167#0" to="121498328" />
    <trip id="99" depart="0.00" from="23227576#8" to="-15239886#1" />
    <trip id="100" depart="0.00" from="55283910" to="37732652" />
    <trip id="101" depart="0.00" from="-32263785#0" to="-24971163#3+-24971164#1" />
    <trip id="102" depart="0.00" from="134408842#3" to="-31009602#1" />
    <trip id="103" depart="0.00" from="23227404#0" to="-58666558#3" />
    <trip id="104" depart="0.00" from="-115912118#0" to="53896958" />
    <trip id="105" depart="0.00" from="112602525#0" to="147972363" />
    <trip id="106" depart="0.00" from="4018845#5" to="134407089#1" />
    <trip id="107" depart="0.00" from="141427886" to="146379324#3" />
    <trip id="108" depart="0.00" from="165419182" to="160615598#0" />
    <trip id="109" depart="0.00" from="31009601" to="166532727#3" />
</trips>