<?xml version="1.0"?>
<!-- generated on 2013-07-09 11:35:28.579208 by $Id: randomTrips.py 13811 2013-05-01 20:31:43Z behrisch $ -->
<trips>
    <trip id="0" depart="0.00" from="19/2to18/2" to="14/13to14/14" />
    <trip id="1" depart="1.00" from="17/6to18/6" to="6/12to5/12" />
    <trip id="2" depart="2.00" from="0/5to0/6" to="15/5to14/5" />
    <trip id="3" depart="3.00" from="24/22to24/23" to="7/16to6/16" />
    <trip id="4" depart="4.00" from="6/7to7/7" to="16/9to17/9" />
    <trip id="5" depart="5.00" from="23/7to23/8" to="0/19to1/19" />
    <trip id="6" depart="6.00" from="4/16to3/16" to="20/19to20/20" />
    <trip id="7" depart="7.00" from="17/9to17/10" to="23/7to24/7" />
    <trip id="8" depart="8.00" from="14/3to13/3" to="9/19to10/19" />
    <trip id="9" depart="9.00" from="8/20to9/20" to="16/22to15/22" />
    <trip id="10" depart="10.00" from="11/20to10/20" to="10/7to10/6" />
    <trip id="11" depart="11.00" from="9/13to10/13" to="22/19to22/20" />
    <trip id="12" depart="12.00" from="20/13to20/14" to="1/11to0/11" />
    <trip id="13" depart="13.00" from="8/1to7/1" to="15/15to14/15" />
    <trip id="14" depart="14.00" from="1/12to0/12" to="20/1to20/2" />
    <trip id="15" depart="15.00" from="2/9to3/9" to="13/9to12/9" />
    <trip id="16" depart="16.00" from="5/9to4/9" to="20/7to20/8" />
    <trip id="17" depart="17.00" from="23/10to23/11" to="14/18to14/17" />
    <trip id="18" depart="18.00" from="23/10to23/9" to="20/5to20/4" />
    <trip id="19" depart="19.00" from="13/4to13/5" to="16/3to16/4" />
    <trip id="20" depart="20.00" from="9/24to10/24" to="0/2to0/3" />
    <trip id="21" depart="21.00" from="9/12to10/12" to="9/16to9/17" />
    <trip id="22" depart="22.00" from="24/3to24/4" to="8/10to8/9" />
    <trip id="23" depart="23.00" from="7/18to7/17" to="13/17to12/17" />
    <trip id="24" depart="24.00" from="3/20to3/19" to="9/12to10/12" />
    <trip id="25" depart="25.00" from="4/8to4/9" to="9/20to9/21" />
    <trip id="26" depart="26.00" from="12/6to11/6" to="6/0to7/0" />
    <trip id="27" depart="27.00" from="4/7to4/6" to="12/5to11/5" />
    <trip id="28" depart="28.00" from="17/20to18/20" to="23/8to24/8" />
    <trip id="29" depart="29.00" from="14/8to13/8" to="15/18to16/18" />
    <trip id="30" depart="30.00" from="5/18to4/18" to="12/5to12/4" />
    <trip id="31" depart="31.00" from="8/15to8/16" to="24/14to24/15" />
    <trip id="32" depart="32.00" from="14/20to15/20" to="20/11to21/11" />
    <trip id="33" depart="33.00" from="12/18to11/18" to="10/3to10/4" />
    <trip id="34" depart="34.00" from="14/7to15/7" to="3/14to3/15" />
    <trip id="35" depart="35.00" from="15/14to15/15" to="14/13to13/13" />
    <trip id="36" depart="36.00" from="7/7to6/7" to="1/3to0/3" />
    <trip id="37" depart="37.00" from="23/8to24/8" to="11/5to11/6" />
    <trip id="38" depart="38.00" from="22/6to22/5" to="17/8to16/8" />
    <trip id="39" depart="39.00" from="19/8to20/8" to="7/22to8/22" />
    <trip id="40" depart="40.00" from="19/20to18/20" to="22/13to22/12" />
    <trip id="41" depart="41.00" from="15/9to15/8" to="19/23to18/23" />
    <trip id="42" depart="42.00" from="2/5to3/5" to="2/13to2/14" />
    <trip id="43" depart="43.00" from="1/1to2/1" to="10/15to10/14" />
    <trip id="44" depart="44.00" from="15/14to15/15" to="3/20to2/20" />
    <trip id="45" depart="45.00" from="16/1to16/2" to="14/0to13/0" />
    <trip id="46" depart="46.00" from="20/24to19/24" to="18/3to18/2" />
    <trip id="47" depart="47.00" from="20/14to20/15" to="7/8to7/7" />
    <trip id="48" depart="48.00" from="2/21to3/21" to="22/20to22/19" />
    <trip id="49" depart="49.00" from="8/15to7/15" to="17/4to17/3" />
    <trip id="50" depart="50.00" from="3/15to4/15" to="20/20to20/21" />
    <trip id="51" depart="51.00" from="3/24to2/24" to="5/20to5/19" />
    <trip id="52" depart="52.00" from="5/6to5/7" to="22/9to21/9" />
    <trip id="53" depart="53.00" from="3/15to3/14" to="20/18to20/17" />
    <trip id="54" depart="54.00" from="1/10to1/11" to="10/0to11/0" />
    <trip id="55" depart="55.00" from="20/14to20/15" to="13/6to13/5" />
    <trip id="56" depart="56.00" from="8/1to8/2" to="23/16to22/16" />
    <trip id="57" depart="57.00" from="21/8to22/8" to="1/3to0/3" />
    <trip id="58" depart="58.00" from="17/10to16/10" to="7/7to7/6" />
    <trip id="59" depart="59.00" from="17/22to17/21" to="11/12to11/11" />
    <trip id="60" depart="60.00" from="17/14to17/15" to="6/15to5/15" />
    <trip id="61" depart="61.00" from="10/9to10/10" to="5/18to6/18" />
    <trip id="62" depart="62.00" from="23/21to22/21" to="15/20to15/21" />
    <trip id="63" depart="63.00" from="10/6to11/6" to="7/3to6/3" />
    <trip id="64" depart="64.00" from="20/9to19/9" to="5/6to6/6" />
    <trip id="65" depart="65.00" from="14/6to14/5" to="8/23to7/23" />
    <trip id="66" depart="66.00" from="4/14to4/13" to="12/23to13/23" />
    <trip id="67" depart="67.00" from="4/24to4/23" to="5/15to4/15" />
    <trip id="68" depart="68.00" from="1/24to2/24" to="19/19to19/20" />
    <trip id="69" depart="69.00" from="10/15to10/16" to="10/13to10/12" />
    <trip id="70" depart="70.00" from="4/8to5/8" to="24/12to24/11" />
    <trip id="71" depart="71.00" from="15/1to15/2" to="6/13to6/12" />
    <trip id="72" depart="72.00" from="16/23to16/24" to="18/14to18/13" />
    <trip id="73" depart="73.00" from="18/10to17/10" to="8/22to7/22" />
    <trip id="74" depart="74.00" from="20/4to19/4" to="7/6to7/7" />
    <trip id="75" depart="75.00" from="7/14to8/14" to="4/8to4/9" />
    <trip id="76" depart="76.00" from="3/12to3/13" to="16/8to17/8" />
    <trip id="77" depart="77.00" from="13/8to14/8" to="14/16to14/17" />
    <trip id="78" depart="78.00" from="12/0to12/1" to="12/4to11/4" />
    <trip id="79" depart="79.00" from="6/11to6/10" to="18/9to19/9" />
    <trip id="80" depart="80.00" from="1/15to1/14" to="17/23to17/22" />
    <trip id="81" depart="81.00" from="13/24to12/24" to="14/14to15/14" />
    <trip id="82" depart="82.00" from="9/0to9/1" to="19/3to19/4" />
    <trip id="83" depart="83.00" from="16/6to15/6" to="17/3to16/3" />
    <trip id="84" depart="84.00" from="19/4to19/3" to="21/22to21/23" />
    <trip id="85" depart="85.00" from="12/12to13/12" to="14/8to15/8" />
    <trip id="86" depart="86.00" from="22/5to21/5" to="5/16to4/16" />
    <trip id="87" depart="87.00" from="15/22to15/21" to="2/21to1/21" />
    <trip id="88" depart="88.00" from="22/7to22/8" to="20/13to20/12" />
    <trip id="89" depart="89.00" from="23/22to24/22" to="13/8to12/8" />
    <trip id="90" depart="90.00" from="15/9to16/9" to="1/14to1/13" />
    <trip id="91" depart="91.00" from="2/15to3/15" to="17/16to17/15" />
    <trip id="92" depart="92.00" from="12/21to13/21" to="16/4to17/4" />
    <trip id="93" depart="93.00" from="7/0to6/0" to="0/4to1/4" />
    <trip id="94" depart="94.00" from="21/17to21/18" to="16/24to16/23" />
    <trip id="95" depart="95.00" from="8/10to8/11" to="2/2to2/3" />
    <trip id="96" depart="96.00" from="20/7to20/6" to="15/4to15/5" />
    <trip id="97" depart="97.00" from="7/5to8/5" to="24/14to24/13" />
    <trip id="98" depart="98.00" from="13/5to14/5" to="16/6to17/6" />
    <trip id="99" depart="99.00" from="4/8to4/9" to="0/11to0/10" />
</trips>