<?xml version="1.0"?>
<routes>
<route id="route0" edges="164111020#2 -164111020#2 -164111020#1 -164111020#0 164111019#0 164111019#1 134769354#1 146379327 -56910633#2 -56910633#1 -56910633#0 -42453415 42453414#1 42453519 112602526#5 112602524#4 146379324#2 146379324#3 146379326#0 146379326#1 146379326#2 145012682#0 145012682#1 145012682#2 145012909#1 145012909#2 145012912#0 145012912#1 145012912#2 4520090#0 4520090#1 4520090#2 134397743#0 141633905#0 145019300#5 145019300#6 134235049#1 134235049#2 134235049#3 134235049#4 134235049#5 134235049#6 134235049#7 134235049#8 134235049#9 134236190 140751759#0 -136990352#0 143276335#1 143276335#2 165990906#0 165990906#1 4494778 7980543#0 7980543#1 -35361611 35361611"/>
        <route id="route1" edges="62091790#12 -62091790#12 -62091790#11 -40491986#0 10753783#2 138760678 -27595967#2 -27595967#1 -27595967#0 166532726#0 166532726#1 166532727#3 15239886#0 134580468#0 134580468#1 134580474 134580469#0 134580469#1 134580469#2 134580469#3 134580469#4 134580469#5 134580469#6 134580469#7 134580469#8 134580469#9 134580469#10 134580469#11 145012909#0 145012909#1 145012909#2 145012912#0 145012912#1 145012912#2 4520090#0 4520090#1 4520090#2 134397743#0 141633905#0 145019300#5 145019300#6 134235049#1 134235049#2 134235049#3 134235049#4 134235049#5 134235049#6 134235049#7 134235049#8 134235049#9 134236190 140751759#0 140751759#1 -145017163#1 -145017163#0 145017162#0 4494794#0 145017164#1 136990481#0 136990481#1 51855670#1 51855670#2 23978409 51855667#0 51855667#1 51855667#2 51855667#3 51855667#4 139609488 23978391#1 24870095 7980558#2"/>

        <route id="route2" edges="-115896294#2 115896294#2 115896296 117084985 115908347 -53264702#4 53264713 115676657#0 115676655 37732652 58666561#0 58666561#1 165090431#1 165090431#2 165090426#0 165090426#1 112602523#2 112602529#0 112602529#1 112602525#0 165090432#0 165090432#1 165090432#2 165090432#3 165090432#4 -145018317#1 4520077#0 145012681#9 141633906#1 141633906#2 145019300#0 145019300#1 145019300#2 145019300#3 141634344#2 134397743#0 134397743#1 134397744#0 134397744#1 134397744#2 134398143 134407835#0 134407835#1 138141247#2 138141247#3 4520104#2 27745290#0 27745290#1 4018825#0 4018825#1 4018825#2 4018825#3 4018825#4 4018825#5 4018825#6 4018825#7 4018825#8 4018825#9 4018825#10 4018825#11 24971163#1 24971163#2"/>
 
        <route id="route3" edges="35875010#2 -23227478#2 -23227478#1 -23227478#0 -23227456 -10753878#0 5110269#0 5110269#1 23227427#0 23227427#1 163757282#0 163757282#1 163757290 163757284#0 163757284#1 -57742680#8 -57742680#7 -57742680#6 53869265#0 134580469#9 134580469#10 134580469#11 145012909#0 145012909#1 145012911#1 145012911#2 145012911#3 112602527#0 112602527#1 112602527#2 112602527#3 -112602526#6 -112602526#5 112602522#2 -112602526#3 112602522#4 -112602526#1 -112602526#0 53886624 10516167#1 112602523#0 165090427#0 165090443#0 165090443#1 165090443#2 165090427#4 89873766#3 89873766#4 -58666559 -75902816#1 115908345 -53264702#6"/>
 
        <route id="route4" edges="34411512#1 -34411512#1 -34411512#0 -116883175#1 -116883175#0 -58666560#2 -58666560#1 -58666560#0 115676657#0 115676655 37732652 58666561#0 58666561#1 165090431#1 165090431#2 165090426#0 165090426#1 112602523#2 112602529#0 112602529#1 112602525#0 165090432#0 165090432#1 165090432#2 165090432#3 165090432#4 -145018317#1 4520077#0 145012681#9 141633906#1 141633906#2 145019300#0 145019300#1 145019300#2 145019300#3 141634344#2 134397743#0 134397743#1 134397744#0 134397744#1 134397744#2 134398143 134407835#0 134407835#1 138141247#2 138141247#3 4520104#2 27745290#0 27745290#1 4018825#0 4018825#1 4018825#2 4018825#3 4018825#4 4018825#5 4018825#6 4018825#7 4018825#8 4018825#9 4018825#10 4018825#11 4018825#12 4018825#13 4018788#0 4018788#1 4018788#2 4018788#3"/>

        <route id="route5" edges="112602522#3 112602526#3 112602526#4 112602526#5 112602524#4 146379324#2 146379324#3 146379326#0 146379326#1 146379326#2 145012682#0 145012682#1 145012682#2 145012909#1 145012909#2 145012912#0 145012912#1 145012912#2 4520090#0 4520090#1 4520090#2 134397743#0 134397743#1 134397744#0 134397744#1 134397744#2 134398143 134407835#0 134407835#1 134407835#2 134407835#3 112610995 147175273 134408764#0 134408764#1 134408764#2 134408764#3 134765994#2 134765994#3 134765994#4 134765994#5 4018815#6 4018835#0 4018835#1 4018835#2 134550444#1 134550444#2 -142387176 -37634347"/>
<flow id="0" route="route0" begin="0" end="3600" number="10000"/>
<flow id="1" route="route1" begin="0" end="3600" number="10000"/>
<flow id="2" route="route2" begin="0" end="3600" number="10000"/>
<flow id="3" route="route3" begin="0" end="3600" number="10000"/>
<flow id="4" route="route4" begin="0" end="3600" number="10000"/>
<flow id="5" route="route5" begin="0" end="3600" number="10000"/>
</routes>

