<?xml version="1.0" encoding="UTF-8"?>

<!-- generated on Mon Jul  8 09:54:26 2013 by SUMO duarouter Version 0.17.1
<?xml version="1.0" encoding="UTF-8"?>

<configuration xmlns:xsi="http://www.w3.org/2001/XMLSchema-instance" xsi:noNamespaceSchemaLocation="http://sumo.sf.net/xsd/duarouterConfiguration.xsd">

    <input>
        <net-file value="../downtown.mapa.xml"/>
        <trip-files value="../trips.trips.xml"/>
    </input>

    <output>
        <output-file value="downtown.rou.xml"/>
    </output>

    <processing>
        <repair value="true"/>
    </processing>

</configuration>
-->

<routes xmlns:xsi="http://www.w3.org/2001/XMLSchema-instance" xsi:noNamespaceSchemaLocation="http://sumo.sf.net/xsd/routes_file.xsd">
    <vehicle id="0" depart="0.00">
        <route edges="164111019#3 -156996315 -109301504 -164111034#1 -164111034#0 -156996313#0 -23331418#3 -23331418#2 -23331418#1 -23331418#0 142651267#0+142653784#0 142651267#1+142653784#1 142651267#2+142653784#2 31068405#0 31068405#1 31068405#2 164111020#3 164111020#4 27638652#0 -120363502#1 37337308#0 37337308#1 37337308#2 37337308#3 -120248977#4 -120248977#3 -117083578 -89873767 -117084987 -115896303#1 -115896303#0 -115896312 -115896297"/>
    </vehicle>
    <vehicle id="1" depart="0.00">
        <route edges="35875021#3 35875021#4 35875008#1 4520095#0 37697586#0 37697586#1 43375972#0 43375972#1 8311371 147175277#0 147175277#1 8132447 147175283#0 134408764#2 134408764#3 134408764#4 59429225 134550446 134548710 145593785#0 145593785#1 4868888#1 28893947#3 28893947#4 147972344 134550448"/>
    </vehicle>
    <vehicle id="10" depart="0.00">
        <route edges="117238916 -23331418#3 -23331418#2 -23331418#1 -23331418#0 142651267#0+142653784#0 142651267#1+142653784#1 142651267#2+142653784#2 -56910633#2 -56910633#1 -56910633#0 -42453415 42453414#1 42453519 112602526#5 112602524#4 146379324#2 146379324#3 146379326#0 146379326#1 146379326#2 145012682#0 145012682#1 145012682#2 145012909#1 145012909#2 145012912#0 145012912#1 145012912#2 4520090#0 4520090#1 4520090#2 134397743#0 134397743#1 134397744#0 134397744#1 134397744#2 134398143 134407835#0 134407835#1 134407835#2 138141249#3 138141249#4 -4520100 43375972#1"/>
    </vehicle>
    <vehicle id="100" depart="0.00">
        <route edges="55283910 142651260 142651267#0+142653784#0 142651267#1+142653784#1 142651267#2+142653784#2 4073491 75902816#0 75902816#1 58666559 89873772#0 89873772#1 -165090425 165090431#0 -58666561#1 -58666561#0 -37732652 37732652"/>
    </vehicle>
    <vehicle id="101" depart="0.00">
        <route edges="-32263785#0 32263785#0 32263785#1 134238309#1 4857479#1 4857479#2 4857479#3 4857479#4 4857479#5 4857479#6 4018851#0 4018851#1 4018851#2 4018851#3 4018851#4 4018788#0 134407087#0 134407087#1 134407087#2 -24971163#3+-24971164#1"/>
    </vehicle>
    <vehicle id="102" depart="0.00">
        <route edges="134408842#3 59429225 134553222#0 134553222#1 134553222#2 134553221#2+134553222#3 134552889 134552888#0 134552888#1 37669517#0 8423864 8311400 8423866 8311367 8311387 43375972#3 43375972#4 4520105 45671217 45671218#0 134398140#1 112060320#0 112060320#1 134397740#0 134397740#1 145012679 145012680#0 145012680#1 145012911#0 145012911#1 145012911#2 145012911#3 112602527#0 112602527#1 112602527#2 112602527#3 146380971 14350356#0 14350356#1 14350356#2 38001044#0 38001123#0 38001123#1 42453505#0 42453505#1 -31009602#1"/>
    </vehicle>
    <vehicle id="103" depart="0.00">
        <route edges="23227404#0 -145014444#6 -145014444#5 23227404#3 134580469#4 134580469#5 134580469#6 134580469#7 134580469#8 134580469#9 134580469#10 134580469#11 145012909#0 145012909#1 145012911#1 145012911#2 145012911#3 112602527#0 111737367#1 145016429#1 23227363#0 23227363#1 23227363#2 23227363#3 145012768#2 145012768#3 145012768#4 145012768#5 145012768#6 146398628 146398630 164013607 58666556 58666558#2 58666558#3 -58666558#3"/>
    </vehicle>
    <vehicle id="104" depart="0.00">
        <route edges="-115912118#0 115912714#1 -164111018#1 -164111018#0 164111028 -15243017 -4073450 4519672 116883181 7980574#0 7980574#1 56332476 43061999#0 43061999#1 58666562 -32013384#1 -32013384#0 10516170 53896956 56935336 146660067 53896958"/>
    </vehicle>
    <vehicle id="105" depart="0.00">
        <route edges="112602525#0 165090432#0 165090432#1 165090432#2 165090432#3 165090432#4 -145018317#1 4520077#0 145012681#9 141633906#1 141633906#2 145019300#0 145019300#1 145019300#2 145019300#3 141634344#2 134397743#0 134397743#1 134397744#0 134397744#1 134397744#2 134398143 134407835#0 134407835#1 134407835#2 134407835#3 112610995 147175273 134408764#0 134408764#1 134408764#2 134408764#3 134408764#4 59429225 134550446 147175289 147972363"/>
    </vehicle>
    <vehicle id="106" depart="0.00">
        <route edges="4018845#5 134408177 112610977#0 112610977#1 138141247#1 138141247#2 138141247#3 4520104#2 27745290#0 4018810#1 134407089#1"/>
    </vehicle>
    <vehicle id="108" depart="0.00">
        <route edges="165419182 -23227478#0 -23227456 -10753878#0 5110269#0 5110269#1 23227427#0 23227427#1 163757282#0 163757282#1 163757290 163757284#0 12543636#6 12543636#7 12543636#8 37335402#4 145014444#7 145014444#8 -12543634#1 -12543634#0 31898400#4 31898400#5 149768939 37063199#0 37063199#1 47034477#0 47034477#1 47034477#2 160615597#0 160615597#1 160615597#2 160615597#3 160615598#0"/>
    </vehicle>
    <vehicle id="109" depart="0.00">
        <route edges="31009601 -31009601 31009602#0 -26743565 112602526#0 112602526#1 112602526#2 112602526#3 112602526#4 112602526#5 112602524#4 112602524#5 25096212#0 25096212#1 25096212#2 25096211#0 25096211#1 25096211#2 31898400#0 31898400#1 31898400#2 31898400#3 12543634#0 12543634#1 145014444#9 118373948#0 12543636#10 12543636#11 40980378 40980379#0 40980379#1 137135361#0 4868905#3 166532727#1 166532727#2 166532727#3"/>
    </vehicle>
    <vehicle id="11" depart="0.00">
        <route edges="-23084079#2 134235048#5 134235048#6 134235048#7 134235667#3 134235667#2 134235667#1 134235719#2 134235719#3 141633905#4 141633905#5 141633905#6 141633905#7 141633905#8 141633905#9 141633905#10 141633905#11 145012679 145012680#0 145012680#1"/>
    </vehicle>
    <vehicle id="12" depart="0.00">
        <route edges="145019295#1 23729251#0 145012681#3 145012681#4 145012681#5 145012681#6 145012681#7 145012681#8 145012681#9 141633906#1 141633906#2 145019300#0 145019300#1 145019300#2 145019300#3 141634344#2 134397743#0 134397743#1 134397744#0 134397744#1 134397744#2 134398143 134407835#0 134407835#1 134407835#2 134407835#3 112610995 147175273 134408764#0 134408764#1 134408764#2 134408764#3 134408764#4 59429225 134553222#0"/>
    </vehicle>
    <vehicle id="13" depart="0.00">
        <route edges="145012768#0 145012912#2 4520090#0 4520090#1 4520090#2 134397743#0 141633905#0 145019300#5 145019300#6 134235049#1 134235049#2 134235049#3 134235049#4 134235049#5 134235049#6 134235049#7 134235049#8 134235049#9 134236190 140751759#0 140751759#1 -145017163#1 -145017163#0 145017162#0 4494794#0 145017164#1 136990481#0 136990481#1 136990481#2 136990480#0 136990480#1 136990480#2 136990480#3 142655184#0 142655184#1 142655184#2 -142655188 -143117592"/>
    </vehicle>
    <vehicle id="14" depart="0.00">
        <route edges="165090432#3 145012768#3 145012768#4 145012768#5 145012768#6 146398628 146398630 164013607 25686851 164013604 -164013604"/>
    </vehicle>
    <vehicle id="15" depart="0.00">
        <route edges="37337308#3 -37337308#3 -37337308#2 -37337308#1 -37337308#0 120363502#1 -27638652#0 4073513#0 4073513#1 4073513#2 75902816#0 75902816#1 164111025 37732653 -42453415 42453414#1 42453519 112602526#5 112602524#4 146379324#2 146379324#3 146379326#0 146379326#1 146379326#2 145012682#0 145012682#1 145012682#2 145012909#1 145012909#2 145012912#0 145012912#1 145012912#2 4520090#0 4520090#1 4520090#2 134397743#0 134397743#1 134397744#0 134397744#1 134397744#2 134398143 134407835#0 134407835#1 138141247#2 138141247#3 4520104#2 27745290#0 27745290#1 4018825#0 4018825#1 4018825#2 4018825#3 4018825#4 4018825#5 4018825#6 4018825#7 4018825#8 4018825#9 4018825#10 4018825#11 4018825#12 4018825#13 4018788#0 4018788#1 4018788#2 4018788#3 4018788#4 -32780452 -32780443#4 -32780451 -32780450 -32780447#0 -32780449"/>
    </vehicle>
    <vehicle id="16" depart="0.00">
        <route edges="163757284#0 12543636#6 12543636#7 23227412#1 5110266#0 5110266#1 4868904#0 4868904#1 27625572#0 27625572#1 27625579 -147680936 -4494327#5 -112610976 -112610985 -112610982 -5110289#0 5110289#0"/>
    </vehicle>
    <vehicle id="17" depart="0.00">
        <route edges="32780446 -32780446 -32780443#5 32780452 4018788#5 4018788#6 4018788#7 4018788#8 4868888#0 4868888#1 28893947#3 28893947#4 147972344 134550448 134553221#0 134553221#1 134553221#2+134553222#3 134552889 134552888#0 134552888#1 37669517#0 8423864 8311400 8423866 8311367 8311387 43375972#3 43375972#4 4520105 45671217 45671218#0 134398140#1 112060320#0 166623694#0 166623694#1 51855672 165847251#0 165847251#1 -141634886#10 -141634886#9 -141634886#8 7980547#0 134235049#6 134235049#7 134235049#8 134235049#9 134236190 140751759#0 140751759#1 -145017163#1 -145017163#0 145017162#0 4494794#0 4494794#1 4494794#2 137191639#4 137191639#5 149764465 137191640#0 43325364#1 53771529#1"/>
    </vehicle>
    <vehicle id="18" depart="0.00">
        <route edges="134580474 134580469#0 134580469#1 134580469#2 134580469#3 134580469#4 134580469#5 134580469#6 134580469#7 134580469#8 134580469#9 134580469#10 134580469#11 145012909#0 145012909#1 145012909#2 145012912#0 145012912#1 145012912#2 4520090#0 4520090#1 4520090#2 134397743#0 134397743#1 134397744#0 134397744#1 134397744#2 134398143 134407835#0 134407835#1 138141247#2 138141247#3 4520104#2 27745290#0 27745290#1 4018825#0 4018825#1 4018825#2 4018825#3 4018825#4 4018825#5 4018825#6 4018825#7 4018825#8 4018825#9 4018785#0 4018785#1"/>
    </vehicle>
    <vehicle id="19" depart="0.00">
        <route edges="32780443#1 -32780443#1 -32780443#0 27240617#1 4494465 4018838#1 4858684#2 24712056 32780254#0 32780254#1 137134716#3 137134716#4 137134716#5 134407087#1 134407087#2 134407087#3 134407087#4 134407087#5 134407087#6 134407087#7 134407087#8 134407087#9 134407087#10 134407089#0 134407089#1 134407834#0 112610993#2 27745290#0 27745290#1 57986382 4683845#0 4683845#1 43165905#1 43015940#2 43015726 43015611#0 43015611#1 43015611#2 43015611#3"/>
    </vehicle>
    <vehicle id="2" depart="0.00">
        <route edges="-112602526#6 112602524#4 112602524#5 25096212#0 25096212#1 -79673985 -79673984 30325860#1 30325860#2 30325860#3 30325860#4 30325860#5 23989219 26613344#1 52783712 47034477#1 47034477#2 160615597#0 160615597#1 160615597#2 160615597#3 151999598#0"/>
    </vehicle>
    <vehicle id="20" depart="0.00">
        <route edges="56314378 43061997 43061999#0 43061999#1 58666562 -32013384#1 -32013384#0 10516170 53896956 56935336 146660067 53896958 31009599 56304524 -53886624 112602526#0 112602526#1 112602526#2 112602526#3 112602526#4 112602526#5 112602524#4 112602524#5 25096212#0 25096212#1 25096212#2 23227334#0 23227334#1 23227377 23227390#0 23227390#1 145014444#1 23227429#0 12543636#7 23227412#1 5110266#0 5110266#1 4868904#0 4868904#1 27625572#0 27625572#1 27625579 -147680936 -4494327#5 -4494327#4 -4494327#3 -4494327#2 -4494327#1 -4494327#0 59242849"/>
    </vehicle>
    <vehicle id="21" depart="0.00">
        <route edges="164111032 -50845220#1 -50845220#0 53264702#2 53264702#3 53264713 115676657#0 115676655 37732652 58666561#0 58666561#1 165090431#1 165090431#2 165090426#0 165090426#1 112602523#2 112602529#0 112602529#1 112602525#0 165090432#0 165090432#1 165090432#2 165090432#3 165090432#4 -145018317#1 4520077#0 4520077#1 4520077#2 86059925#0 134397031 -4520088#1 -4520088#0 141633903#0 141633903#1"/>
    </vehicle>
    <vehicle id="22" depart="0.00">
        <route edges="31305447#0 23978391#3 136990479#2 136990479#3 136990483#0 136990483#1 137191639#2 137191639#3 137191639#4 137191639#5 149764465 137191640#0 137191640#1 137191640#2 137191640#3 58666558#3 58666558#4 58666558#5 58666558#6 -145018316#3 27755546#0 145012681#1 26702701#1 145018315 23729251#3 23729238#0 23729238#1 -43144507#1 52018667 27755548#1"/>
    </vehicle>
    <vehicle id="23" depart="0.00">
        <route edges="166532727#2 166532727#3 15239886#0 15239886#1 37063198#0 37063198#1 37063199#0 37063199#1 47034477#0 47034477#1 47034477#2 160615597#0 160615597#1 160615597#2 160615597#3 160615598#0 160615598#1 160615598#2 160615598#3 146379323#0 45792298#1 15243387 55283910 142651260 142651267#0+142653784#0 142651267#1+142653784#1 142651267#2+142653784#2 31068405#0 31068405#1 31068405#2 164111020#3 164111027 27638652#2 164111017#0 164111017#1 115908912#0 4929028#0 4929028#1 44148008 44148009#0 44148009#1 -50845226#0 -4877646#2 -4877646#1 -4877646#0"/>
    </vehicle>
    <vehicle id="24" depart="0.00">
        <route edges="-23227351 111737333#1 111737334 23227347#0 112602527#3 146380971 25096212#0 25096212#1 25096212#2 23227334#0 23227334#1 23227377 23227390#0 23227390#1 145014444#1 23227429#0 12543636#7 12543636#8 37335402#4 -145014444#6 145014444#6"/>
    </vehicle>
    <vehicle id="25" depart="0.00">
        <route edges="45672229#1 -45672229#1 -45672229#0 141634886#9 141634886#10 141634886#11 134235667#2 134235667#1 134235719#2 134235719#3 141633905#4 141633905#5 141633905#6 141633905#7 141633905#8 141633905#9 141633905#10 141633905#11 145012679 145012680#0 145012680#1 145012911#0 145012911#1 145012911#2 145012911#3 112602527#0 112602527#1 112602527#2 112602527#3 146380971 14350356#0 14350356#1 14350356#2 38001044#0 38001044#1 146379318#0 146379318#1 146379318#2 146379318#3 146379317 55283910 142651260 142651267#0+142653784#0 142651267#1+142653784#1 142651267#2+142653784#2 31068405#0 31068405#1 31068405#2 164111020#3 164111027 27638652#2 164111017#0 164111017#1 115908912#0 4929028#0 4929028#1 44148008 44148009#0 44148009#1 -44148009#1"/>
    </vehicle>
    <vehicle id="26" depart="0.00">
        <route edges="166039368#1 -166039368#1 166039362#1 166039363#1 166039363#2 44935939 165990907#3 4494778 7980543#0 7980543#1 4494779 4494774#3 4494774#4 4494774#5 4494774#6 23084178#0 23084178#1 23084178#2 166039358 43015940#0 27745095 43016041#0 43016041#1 146536204#3 134407088#0 138141254#0 4018825#2 4018825#3 4018825#4 4018825#5 4018825#6 4018825#7 4018825#8 4018825#9 4018825#10 4018825#11 4018825#12 4018825#13 4018788#0 4018788#1 4018788#2 4018788#3 4018788#4 -32780452 -32780443#4 -32780443#3 -32780443#2"/>
    </vehicle>
    <vehicle id="27" depart="0.00">
        <route edges="112602526#6 146380971 25096212#0 25096212#1 25096212#2 23227334#0 23227334#1 23227377 23227390#0 23227390#1 145014444#1 23227429#0 12543636#7 12543636#8 37335402#4 145014444#7"/>
    </vehicle>
    <vehicle id="28" depart="0.00">
        <route edges="-34411515#1 115908912#3 115908912#4 -34411512#0 -116883175#1 -116883175#0 -58666560#2 -58666560#1 -58666560#0 115676657#0 115676655 37732652 58666561#0 58666561#1 165090431#1 165090431#2 165090426#0 165090426#1 112602523#2 112602529#0 112602529#1 112602525#0 165090432#0 165090432#1 165090432#2 165090432#3 165090432#4 -145018317#1 4520077#0 145012681#9 141633906#1 141633906#2 145019300#0 145019300#1 145019300#2 145019300#3 141634344#2 134397743#0 134397743#1 134397744#0 134397744#1 134397744#2 134398143 134407835#0 134407835#1 138141247#2 138141247#3 4520104#2 27745290#0 27745290#1 4018825#0 4018825#1 4018825#2 4018825#3 4018825#4 4018825#5 4018825#6 4018825#7 4018825#8 -24971165#1 24971165#1"/>
    </vehicle>
    <vehicle id="29" depart="0.00">
        <route edges="166532727#0 166532727#1 166532727#2 166532727#3 15239886#0 134580468#0 134580468#1 134580474 134580469#0 134580469#1 -12543634#0 -31898400#3 23227404#8"/>
    </vehicle>
    <vehicle id="3" depart="0.00">
        <route edges="8132446#6 134765991#0 134765991#1 134553222#0 134553222#1 134553222#2 134553221#2+134553222#3 134552889 134552888#0 134552888#1 37669517#0 8423864 8311400 8423866 8311367 8311387 43375972#3 43375972#4 4520105 45671217 45671218#0 134398140#1 112060320#0 112060320#1 134397740#0 134397740#1 145012679 145012680#0 145012680#1 145012911#0 145012911#1 145012911#2 145012911#3 112602527#0 112602527#1 112602527#2 112602527#3 -112602526#6 -112602526#5 112602522#2 -112602526#3 112602522#4 -112602526#1 -112602526#0 53886624 30979571 -31009599 -53896958 -146660067 -56935336 -53896956 -10516170 32013384#0 32013384#1 -58666562 43062000"/>
    </vehicle>
    <vehicle id="30" depart="0.00">
        <route edges="134407088#1 4018825#1 4018825#2 4018825#3 4018825#4 4018825#5 4018825#6 4018825#7 4018825#8 4018825#9 4018785#0 4018785#1 33439272#0"/>
    </vehicle>
    <vehicle id="32" depart="0.00">
        <route edges="55283910 142651260 142651267#0+142653784#0 142651267#1+142653784#1 142651267#2+142653784#2 -56910633#2 -56910633#1 -56910633#0 -42453415 42453414#1 42453519 112602526#5 112602524#4 146379324#2 146379324#3 146379326#0 146379326#1 146379326#2 145012682#0 145012682#1 145012682#2 145012909#1 145012909#2 145012912#0 145012912#1 145012912#2 4520090#0 4520090#1 -57744804#1 -57744804#0 -57744803 -57744805 -27626059#3 -27626059#2 -27626059#1"/>
    </vehicle>
    <vehicle id="33" depart="0.00">
        <route edges="-15243017 -4073450 4519672 116883181 7980574#0 7980574#1 56332476 43061999#0 43061999#1 58666562 -32013384#1 -32013384#0 10516170 53896956 56935336 146660067 53896958 31009600 112602525#0 165090432#0 165090432#1 165090432#2 165090432#3 165090432#4 -145018317#1 4520077#0 145012681#9 141633906#1 141633906#2 145019300#0 145019300#1 145019300#2 145019300#3 141634344#2 134397743#0 134397743#1 134397744#0 134397744#1 134397744#2 134398143 134407835#0 134407835#1 138141247#2 138141247#3 4520104#2 27745290#0 27745290#1 57986382 4683845#0 4683845#1 43165905#1 -43165905#1"/>
    </vehicle>
    <vehicle id="34" depart="0.00">
        <route edges="58666561#0 58666561#1 165090431#1 165090431#2 165090426#0 165090426#1 112602523#2 112602529#0 56304524 -53886624 112602526#0 112602526#1 112602526#2 112602526#3 112602526#4 -112602530"/>
    </vehicle>
    <vehicle id="35" depart="0.00">
        <route edges="-25816209#1 25816209#1 9823618#0 9823618#1 9823618#2 9823618#3 149764466 51855670#0 51855670#1 51855670#2 51855670#3 51855669#0 51855669#1 51855669#2 51855669#3 4857479#0 4857479#1 4857479#2 4857479#3 4857479#4 4857479#5 4857479#6 4018851#0 4018851#1 4018851#2 4018851#3 4018851#4 4018788#0 4018788#1 4018788#2 4018788#3"/>
    </vehicle>
    <vehicle id="36" depart="0.00">
        <route edges="-43290818#0 53141896 53141945 -37733497#1 -37733497#0 -37733496 4857472#2 4857472#3 4857472#4 164070445 164070441 164070451 4520061#0 4520047#0 4520047#1 4520048#0 4520048#1 4520048#2 4520048#3 4520072#3 4520072#4 4520074 4520075 4520080#1 -86059925#1 134397031 -4520088#1 -4520088#0 141633903#0 141633905#7 141633905#8 141633905#9 141633905#10 141633905#11 145012679 145012680#0 145012680#1 145012911#0 145012911#1 145012911#2 145012911#3 112602527#0 112602527#1 112602527#2 112602527#3 146380971 14350356#0 14350356#1 14350356#2 38001044#0 38001044#1 146379318#0 146379318#1 146379318#2 146379318#3 146379317 55283910 142651260 23331418#0"/>
    </vehicle>
    <vehicle id="37" depart="0.00">
        <route edges="165090431#2 165090426#0 165090426#1 112602523#2 112602529#0 112602529#1 112602525#0 165090432#0 165090432#1 165090432#2 165090432#3 165090432#4 -145018317#1 4520077#0 145012681#9 141633906#1 141633906#2 145019300#0 145019300#1 145019300#2 145019300#3 141634344#2 134397743#0 134397743#1 134397744#0 134397744#1 134397744#2 134398143 134407835#0 134407835#1 134407835#2 134407835#3 112610995 147175273 134408764#0 134408764#1 134408764#2 134408764#3 134765994#2 134765994#3 134765994#4 134765994#5 4018815#6 4018835#0 134552888#1 37669517#0"/>
    </vehicle>
    <vehicle id="39" depart="0.00">
        <route edges="43144536#1 -43144536#1 137191640#2 137191640#3 137191640#4 -164013605 -164013608#1 -164013608#0 -43062000 58666562 -32013384#1 -32013384#0 10516170 53896956 -26612692 37732652 58666563 89873766#1 164204874#1 164204874#2 166696470#1 -53264702#5"/>
    </vehicle>
    <vehicle id="4" depart="0.00">
        <route edges="-164111018#1 -164111018#0 164111028 -15243017 -4073450 4519672 116883181 7980574#0 7980574#1 56332476 43061999#0 43061999#1 58666562 -32013384#1 -32013384#0 10516170 53896956 56935336 146660067 53896958 31009599 56304524 -53886624 112602526#0 112602526#1 112602526#2 112602526#3 112602526#4 112602526#5 112602524#4 146379324#2 146379324#3 146379326#0 146379326#1 146379326#2 145012682#0 145012682#1 145012682#2 145012682#3 12543636#0 57742680#1 57742680#2 57742680#3 -57742680#3"/>
    </vehicle>
    <vehicle id="40" depart="0.00">
        <route edges="-34411512#2 -34411512#1 -34411512#0 -116883175#1 -116883175#0 -58666560#2 -58666560#1 -58666560#0 115676657#0 115676655 37732652 58666561#0 58666561#1 165090431#1 165090431#2 165090426#0 165090426#1 112602523#2 112602529#0 112602529#1 112602525#0 165090432#0 165090432#1 165090432#2 165090432#3 165090432#4"/>
    </vehicle>
    <vehicle id="41" depart="0.00">
        <route edges="4868905#2 137135361#1 -27625564#2 -27625564#1 -27625564#0 27625579 4082401 96017796#0 96017796#1 96017796#2 148365467 145593783 148358570#0 148358570#1 145593784#0 145593784#1 147175290#0 4018815#2 134553221#1 134553221#2+134553222#3 134552889 134552888#0 134552888#1 37669517#0 8423864 8311400 8423866 8311367 8311387 43375972#3 43375972#4 4520105 45671217 45671218#0 134398140#1 112060320#0 166623694#0 166623694#1 51855672 165847251#0 165847251#1 -141634886#10 -141634886#9 -141634886#8 7980547#0 134235049#6 134235049#7 134235049#8 134235049#9 134236190 140751759#0 140751759#1 -145017163#1 -145017163#0 145017162#0 4494794#0 145017164#1 136990481#0 136990481#1 136990481#2 136990480#0 115346437#5"/>
    </vehicle>
    <vehicle id="42" depart="0.00">
        <route edges="45178854 -45178854 -57744806 -27626059#0 57744805 57744803 57744804#0 57744804#1 4520090#2 134397743#0 141633905#0 145019300#5 145019300#6 134235049#1 134235049#2 134235049#3 134235049#4 134235049#5 134235049#6 134235049#7 134235049#8 134235049#9 134236190 140751759#0 140751759#1 140751759#2 134236081 4857477#0 4857477#1 134238311#0 134238311#1 134238311#2"/>
    </vehicle>
    <vehicle id="43" depart="0.00">
        <route edges="-45178856 45178856 45178843 45178844 45178846#0 112060314#2 28660860#0 -57742686 57742680#0 57742680#1 57742680#2 57742680#3 23227359#0 134580469#10 134580469#11 145012909#0 145012909#1 145012909#2 145012912#0 145012912#1 145012912#2 4520090#0 4520090#1 4520090#2 134397743#0 134397743#1 134397744#0 142653802#2 134397740#0"/>
    </vehicle>
    <vehicle id="44" depart="0.00">
        <route edges="4858692#0 4858692#1 4858684#1 4858684#2 24712056 32780254#0 4018788#4 4018788#5 4018788#6 4018788#7 4018788#8 4868888#0 4868888#1 28893947#3 28893947#4 147972344 134550448 134409187#0 134409187#1 147175293#0 147175293#1 147175293#2 37634056#2 37634056#3 8132446#4 8132446#5 8432342 24606606#0 24606606#1"/>
    </vehicle>
    <vehicle id="45" depart="0.00">
        <route edges="-147680936 147680936 -27625579 -27625572#1 -27625572#0 -24319228#1 -24319228#0 -4868903 23227427#0 23227427#1 163757282#0 163757282#1 163757290 163757284#0 163757284#1 -57742680#8 -57742680#7 -57742680#6 53869265#0 134580469#9 134580469#10 134580469#11 145012909#0 145012909#1 145012911#1 145012911#2 145012911#3 112602527#0 112602527#1 112602527#2 112602527#3 -112602526#6 -112602526#5 112602522#2 -112602526#3 112602522#4 -112602526#1 -112602526#0 53886624 30979571 -31009599 -53896958 -146660067 -56935336 -54643434#2 54643434#2"/>
    </vehicle>
    <vehicle id="46" depart="0.00">
        <route edges="-145016429#0 145016429#0 145016429#1 23227363#0 146379326#2 145012682#0 145012682#1 145012682#2 145012909#1 145012909#2 145012912#0 145012912#1 145012912#2 4520090#0 4520090#1 4520090#2 134397743#0 141633905#0 145019300#5 145019300#6 134235049#1 134235049#2 134235049#3 134235049#4 134235049#5 134235049#6 134235049#7 134235049#8 134235049#9 134236190 140751759#0 140751759#1 140751759#2 134236081 4857477#0 4857477#1 134238311#0 134238311#1 134238311#2 -87605251#0 143274294#1"/>
    </vehicle>
    <vehicle id="47" depart="0.00">
        <route edges="-145017163#1 -145017163#0 165990910#0 165990910#1 4520061#0 4520061#1 4520061#2 4520061#3 4520063#0 4519676 -4519675#1 -4519675#0 -4519674#1 -4519674#0 -60005026#4 145012768#5 145012768#6 146398628 146398630 -32013351 -56302954 -164473832#1 164473826#3 4519601 -139764156"/>
    </vehicle>
    <vehicle id="48" depart="0.00">
        <route edges="-4857494 4494327#0 4494327#1 4494327#2 4494327#3 4494327#4 4494327#5 147680936 -27625579 -27625572#1 -27625572#0 -24319228#1 -24319228#0 -4868903 23227427#0 23227427#1 163757282#0 163757282#1 163757290 163757284#0 163757284#1 -57742680#8 -57742680#7 -57742680#6 53869265#0 134580469#9 134580469#10 134580469#11 145012909#0 145012909#1 145012911#1 145012911#2 145012911#3 112602527#0 112602527#1 112602527#2 112602527#3 146380971 14350356#0 -14350356#0"/>
    </vehicle>
    <vehicle id="49" depart="0.00">
        <route edges="4858684#2 24712056 32780254#0 32780254#1 137134716#3 137134716#4 137134716#5 134407087#1 134407087#2 134407087#3 134407087#4 134407087#5 134407087#6 134407087#7 134407087#8 134407087#9 134407087#10 134407089#0 134407089#1 134407834#0 134407834#1 134407834#2 134407834#3 134398140#0 134398140#1 112060320#0 112060320#1 134397740#0 134397740#1 145012679 145012768#0 145012768#1 145012768#2 145012768#3 43061150#1 120458051#0"/>
    </vehicle>
    <vehicle id="5" depart="0.00">
        <route edges="148358570#1 145593784#0 145593784#1 147175290#0 4018815#2 134553221#1 134553221#2+134553222#3 134552889 134552888#0 134552888#1 37669517#0 8423864 8311400 8423866 8311367 8311387 43375972#3 43375972#4 4520105 45671217 45671218#0 134398140#1 112060320#0 112060320#1 134397740#0 134397740#1 145012679 145012680#0 145012680#1 145012911#0 145012911#1 145012911#2 145012911#3 112602527#0 112602527#1 112602527#2 112602527#3 146380971 14350356#0 14350356#1 14350356#2 38001044#0 38001044#1 146379318#0 146379318#1 146379318#2 146379318#3 45792298#0 45792298#1 4877686#0 4877686#1 152008944 152008942 152020579 152008940"/>
    </vehicle>
    <vehicle id="50" depart="0.00">
        <route edges="23227712#1 164070440 164070435#1 4494466#0 28893947#1 28893947#2 28893947#3 28893947#4 147972344 134550448 134553221#0 134553221#1 134553221#2+134553222#3 134552889 134552888#0 134552888#1 37669517#0 8423864 8311400 8423866 8311367 8311387 43375972#3 43375972#4 4520105 45671217 45671218#0 134398140#1 112060320#0 112060320#1 134397740#0 134397740#1 145012679 145012680#0 145012680#1 145012911#0 145012911#1 145012911#2 145012911#3 112602527#0 112602527#1 112602527#2 112602527#3 -112602526#6 -112602526#5 112602522#2 -112602526#3 112602522#4 -112602526#1 -112602526#0 53886624 10516167#1 112602523#0 165090427#0 165090443#0 165090443#1 165090443#2 165090427#4 89873766#3 89873766#4 -58666559 -75902816#1 115908345 53264702#7 53264702#8 53264702#9 -117083579 26743563#2"/>
    </vehicle>
    <vehicle id="51" depart="0.00">
        <route edges="141633904#1 141633905#3 141633905#4 141633905#5 141633905#6 141633905#7 141633905#8 141633905#9 141633905#10 141633905#11 145012679 145012680#0 145012680#1 145012911#0 145012911#1 145012911#2 145012911#3 112602527#0 111737367#1 145016429#1 -145016429#1"/>
    </vehicle>
    <vehicle id="52" depart="0.00">
        <route edges="23227412#0 12543636#8 37335402#4 -145014444#6 -145014444#5 23227404#3 134580469#4 134580469#5 134580469#6 134580469#7 134580469#8 134580469#9 134580469#10 134580469#11 145012909#0 145012909#1 145012909#2 145012912#0 145012912#1 145012912#2 4520090#0 4520090#1 4520090#2 134397743#0 134397743#1 134397744#0 134397744#1 134397744#2 134398143 134407835#0 134407835#1 134407835#2 134407835#3 112610995 147175273 4018845#7 4868924#0 4868924#1 -4868922#1 4868923 111768000#3 111768000#4 -111768000#4"/>
    </vehicle>
    <vehicle id="53" depart="0.00">
        <route edges="144649807 134769351#0 164111019#3 -156996315 -109301504 -164111034#1 -164111034#0 -156996313#0 -23331418#3 -23331418#2 -23331418#1 -23331418#0 142651267#0+142653784#0 142651267#1+142653784#1 142651267#2+142653784#2 -56910633#2 -56910633#1 -56910633#0 -31009602#1 -31009602#0 -165090418 30979571 -31009599 -53896958 7980051 60005026#0 60005026#1 60005026#2 60005026#3 60005026#4 145019295#0 145019295#1"/>
    </vehicle>
    <vehicle id="54" depart="0.00">
        <route edges="145593786 85847370#0 85847370#1 85847370#2 4868888#0 4868888#1 111767996 4494477#0 4494477#1 23227712#0 23227712#1 164070440 164070435#1 27596085#0 27596085#1 8432336 8432337#1 -8432337#1"/>
    </vehicle>
    <vehicle id="55" depart="0.00">
        <route edges="134235048#7 142653802#0 142653802#1 134397744#1 134397744#2 134398143 134407835#0 134407835#1 134407835#2 134407835#3 112610995 147175273 134408764#0 134408764#1 134408764#2 134408764#3 134408764#4 59429225 134550446 134548710 145593785#0 145593785#1 4868888#1 111767996 4494477#0 4494477#1 23227712#0 23227712#1 164070440 164070435#1 27596085#0 8311398"/>
    </vehicle>
    <vehicle id="56" depart="0.00">
        <route edges="145019300#7 -141634886#13 -141634886#12 134235667#2 134235667#1 134235719#2 134235719#3 141633905#4 141633905#5 141633905#6 141633905#7 141633905#8 141633905#9 141633905#10 141633905#11 145012679 145012680#0 145012680#1 145012911#0 145012911#1 145012911#2 145012911#3 112602527#0 112602527#1 25096206#1 23227375#0 23227375#1 53869268"/>
    </vehicle>
    <vehicle id="57" depart="0.00">
        <route edges="75902816#1 58666559 89873772#0 89873772#1 -165090425 165090431#0 -58666561#1 -58666561#0 -37732652 26612692 -53896956 -10516170 32013384#0 32013384#1 -58666562 43062000 164013608#0 164013608#1 164013605 58666556 164013611#0 164013611#1 164013611#2 58666557 53771529#0 53771529#1 115346441#0 115346441#1"/>
    </vehicle>