<?xml version="1.0"?>
<!-- generated on 2012-11-12 13:12:38.238174 by $Id: randomTrips.py 11671 2012-01-07 20:14:30Z behrisch $ -->
<trips>
    <trip id="t0" depart="0" from="21/24to22/24" to="23/21to23/22" />
    <trip id="t1" depart="1" from="14/13to14/12" to="17/0to18/0" />
    <trip id="t2" depart="2" from="16/6to16/7" to="3/7to2/7" />
    <trip id="t3" depart="3" from="14/6to14/5" to="6/22to6/21" />
    <trip id="t4" depart="4" from="18/16to19/16" to="10/11to9/11" />
    <trip id="t5" depart="5" from="7/14to6/14" to="15/14to15/15" />
    <trip id="t6" depart="6" from="22/11to21/11" to="2/23to2/22" />
    <trip id="t7" depart="7" from="7/13to7/12" to="16/13to15/13" />
    <trip id="t8" depart="8" from="15/3to15/2" to="16/21to17/21" />
    <trip id="t9" depart="9" from="16/18to16/19" to="23/17to24/17" />
    <trip id="t10" depart="10" from="15/20to16/20" to="13/2to13/1" />
    <trip id="t11" depart="11" from="2/10to2/9" to="3/11to3/12" />
    <trip id="t12" depart="12" from="6/4to6/5" to="1/22to1/23" />
    <trip id="t13" depart="13" from="6/12to6/13" to="16/21to15/21" />
    <trip id="t14" depart="14" from="10/2to10/1" to="24/11to24/10" />
    <trip id="t15" depart="15" from="6/15to7/15" to="7/16to6/16" />
    <trip id="t16" depart="16" from="16/20to16/19" to="21/20to21/19" />
    <trip id="t17" depart="17" from="20/10to20/11" to="20/23to19/23" />
    <trip id="t18" depart="18" from="2/19to2/18" to="7/7to7/6" />
    <trip id="t19" depart="19" from="2/12to1/12" to="23/3to23/4" />
    <trip id="t20" depart="20" from="20/5to21/5" to="21/18to20/18" />
    <trip id="t21" depart="21" from="7/22to7/21" to="4/15to3/15" />
    <trip id="t22" depart="22" from="1/6to0/6" to="4/24to3/24" />
    <trip id="t23" depart="23" from="0/11to0/12" to="13/5to12/5" />
    <trip id="t24" depart="24" from="21/6to20/6" to="22/13to23/13" />
    <trip id="t25" depart="25" from="2/8to3/8" to="4/18to3/18" />
    <trip id="t26" depart="26" from="0/24to0/23" to="23/10to24/10" />
    <trip id="t27" depart="27" from="7/23to8/23" to="13/18to12/18" />
    <trip id="t28" depart="28" from="7/12to7/13" to="3/6to3/5" />
    <trip id="t29" depart="29" from="22/23to22/22" to="9/19to10/19" />
    <trip id="t30" depart="30" from="3/1to3/2" to="24/19to24/20" />
    <trip id="t31" depart="31" from="23/19to23/20" to="10/3to10/2" />
    <trip id="t32" depart="32" from="12/11to11/11" to="6/1to7/1" />
    <trip id="t33" depart="33" from="13/3to13/4" to="24/16to23/16" />
    <trip id="t34" depart="34" from="17/22to16/22" to="17/4to18/4" />
    <trip id="t35" depart="35" from="12/7to12/6" to="24/12to23/12" />
    <trip id="t36" depart="36" from="22/21to22/20" to="5/1to4/1" />
    <trip id="t37" depart="37" from="17/20to18/20" to="19/14to20/14" />
    <trip id="t38" depart="38" from="6/16to7/16" to="2/9to2/10" />
    <trip id="t39" depart="39" from="9/10to8/10" to="20/19to20/20" />
    <trip id="t40" depart="40" from="7/17to7/18" to="1/23to2/23" />
    <trip id="t41" depart="41" from="9/6to9/7" to="21/10to20/10" />
    <trip id="t42" depart="42" from="3/12to4/12" to="21/22to22/22" />
    <trip id="t43" depart="43" from="0/23to0/22" to="16/15to16/16" />
    <trip id="t44" depart="44" from="0/11to0/10" to="20/8to20/7" />
    <trip id="t45" depart="45" from="3/10to3/11" to="16/12to17/12" />
    <trip id="t46" depart="46" from="7/16to8/16" to="12/18to12/19" />
    <trip id="t47" depart="47" from="20/17to20/16" to="19/3to19/2" />
    <trip id="t48" depart="48" from="22/0to22/1" to="14/12to13/12" />
    <trip id="t49" depart="49" from="12/15to11/15" to="3/1to4/1" />
    <trip id="t50" depart="50" from="13/21to14/21" to="15/19to15/20" />
    <trip id="t51" depart="51" from="11/13to10/13" to="15/14to15/13" />
    <trip id="t52" depart="52" from="14/8to15/8" to="1/21to1/22" />
    <trip id="t53" depart="53" from="24/0to23/0" to="15/19to15/18" />
    <trip id="t54" depart="54" from="21/12to22/12" to="0/16to1/16" />
    <trip id="t55" depart="55" from="11/11to11/12" to="18/10to19/10" />
    <trip id="t56" depart="56" from="14/8to15/8" to="7/0to7/1" />
    <trip id="t57" depart="57" from="10/18to10/17" to="15/10to15/9" />
    <trip id="t58" depart="58" from="18/19to18/20" to="19/18to18/18" />
    <trip id="t59" depart="59" from="2/8to2/9" to="10/0to9/0" />
    <trip id="t60" depart="60" from="16/14to16/15" to="5/6to4/6" />
    <trip id="t61" depart="61" from="12/23to11/23" to="0/3to0/4" />
    <trip id="t62" depart="62" from="1/8to1/7" to="1/8to0/8" />
    <trip id="t63" depart="63" from="0/0to1/0" to="8/2to7/2" />
    <trip id="t64" depart="64" from="17/24to18/24" to="9/19to10/19" />
    <trip id="t65" depart="65" from="6/7to6/6" to="3/21to2/21" />
    <trip id="t66" depart="66" from="2/1to2/2" to="7/8to7/9" />
    <trip id="t67" depart="67" from="7/2to8/2" to="22/19to23/19" />
    <trip id="t68" depart="68" from="24/10to23/10" to="24/7to23/7" />
    <trip id="t69" depart="69" from="13/9to12/9" to="23/15to23/14" />
    <trip id="t70" depart="70" from="9/16to10/16" to="14/6to15/6" />
    <trip id="t71" depart="71" from="5/7to6/7" to="15/1to15/0" />
    <trip id="t72" depart="72" from="7/15to7/14" to="13/4to14/4" />
    <trip id="t73" depart="73" from="23/12to24/12" to="6/15to6/14" />
    <trip id="t74" depart="74" from="2/4to1/4" to="4/20to4/21" />
    <trip id="t75" depart="75" from="7/21to7/20" to="6/16to6/17" />
    <trip id="t76" depart="76" from="22/22to21/22" to="2/1to3/1" />
    <trip id="t77" depart="77" from="15/10to15/11" to="21/3to21/4" />
    <trip id="t78" depart="78" from="0/16to0/15" to="11/22to12/22" />
    <trip id="t79" depart="79" from="9/6to10/6" to="18/22to18/21" />
    <trip id="t80" depart="80" from="8/16to7/16" to="6/22to6/23" />
    <trip id="t81" depart="81" from="10/17to11/17" to="21/0to21/1" />
    <trip id="t82" depart="82" from="6/18to6/19" to="17/1to17/2" />
    <trip id="t83" depart="83" from="9/24to10/24" to="23/13to23/14" />
    <trip id="t84" depart="84" from="18/4to18/5" to="19/18to19/19" />
    <trip id="t85" depart="85" from="21/13to21/14" to="18/18to18/19" />
    <trip id="t86" depart="86" from="10/21to11/21" to="14/7to15/7" />
    <trip id="t87" depart="87" from="21/24to20/24" to="4/3to4/2" />
    <trip id="t88" depart="88" from="20/1to19/1" to="6/1to5/1" />
    <trip id="t89" depart="89" from="16/8to17/8" to="12/10to12/11" />
    <trip id="t90" depart="90" from="24/2to24/3" to="18/17to18/16" />
    <trip id="t91" depart="91" from="2/3to1/3" to="14/11to14/10" />
    <trip id="t92" depart="92" from="6/20to6/19" to="17/17to17/18" />
    <trip id="t93" depart="93" from="2/15to1/15" to="9/20to8/20" />
    <trip id="t94" depart="94" from="10/18to10/17" to="17/17to17/18" />
    <trip id="t95" depart="95" from="12/22to12/21" to="12/19to11/19" />
    <trip id="t96" depart="96" from="5/4to5/5" to="11/7to12/7" />
    <trip id="t97" depart="97" from="17/10to18/10" to="7/23to6/23" />
    <trip id="t98" depart="98" from="9/14to10/14" to="19/8to19/7" />
    <trip id="t99" depart="99" from="7/16to8/16" to="9/15to10/15" />
    <trip id="t100" depart="100" from="17/21to17/20" to="5/22to5/21" />
    <trip id="t101" depart="101" from="21/20to21/21" to="7/23to8/23" />
    <trip id="t102" depart="102" from="0/7to1/7" to="16/5to16/4" />
    <trip id="t103" depart="103" from="2/15to1/15" to="6/24to6/23" />
    <trip id="t104" depart="104" from="16/23to16/22" to="23/8to23/9" />
    <trip id="t105" depart="105" from="6/9to5/9" to="18/2to18/3" />
    <trip id="t106" depart="106" from="3/5to2/5" to="5/14to5/13" />
    <trip id="t107" depart="107" from="24/18to24/19" to="21/8to21/7" />
    <trip id="t108" depart="108" from="11/16to10/16" to="4/8to5/8" />
    <trip id="t109" depart="109" from="15/0to15/1" to="14/5to13/5" />
    <trip id="t110" depart="110" from="5/0to6/0" to="22/19to22/20" />
    <trip id="t111" depart="111" from="17/13to16/13" to="7/2to7/3" />
    <trip id="t112" depart="112" from="22/12to23/12" to="4/14to4/13" />
    <trip id="t113" depart="113" from="5/4to5/3" to="16/16to15/16" />
    <trip id="t114" depart="114" from="22/20to22/19" to="2/0to1/0" />
    <trip id="t115" depart="115" from="2/23to2/22" to="5/5to5/4" />
    <trip id="t116" depart="116" from="15/1to15/2" to="12/17to12/16" />
    <trip id="t117" depart="117" from="21/18to21/19" to="18/14to18/15" />
    <trip id="t118" depart="118" from="15/22to15/23" to="8/8to9/8" />
    <trip id="t119" depart="119" from="20/7to20/8" to="21/15to20/15" />
    <trip id="t120" depart="120" from="4/12to4/11" to="17/19to17/18" />
    <trip id="t121" depart="121" from="19/2to18/2" to="15/19to14/19" />
    <trip id="t122" depart="122" from="0/3to0/2" to="7/8to8/8" />
    <trip id="t123" depart="123" from="18/24to19/24" to="7/14to7/15" />
    <trip id="t124" depart="124" from="4/12to3/12" to="13/13to13/12" />
    <trip id="t125" depart="125" from="2/4to2/5" to="2/15to1/15" />
    <trip id="t126" depart="126" from="14/11to14/10" to="4/11to3/11" />
    <trip id="t127" depart="127" from="12/18to12/19" to="19/9to19/10" />
    <trip id="t128" depart="128" from="17/23to17/22" to="6/22to6/21" />
    <trip id="t129" depart="129" from="5/24to4/24" to="3/6to2/6" />
    <trip id="t130" depart="130" from="5/4to5/3" to="20/8to21/8" />
    <trip id="t131" depart="131" from="19/20to19/19" to="16/23to16/24" />
    <trip id="t132" depart="132" from="18/12to18/11" to="21/22to21/21" />
    <trip id="t133" depart="133" from="11/4to12/4" to="19/9to20/9" />
    <trip id="t134" depart="134" from="19/15to19/16" to="23/19to23/20" />
    <trip id="t135" depart="135" from="7/22to6/22" to="1/4to2/4" />
    <trip id="t136" depart="136" from="12/22to12/23" to="10/21to10/20" />
    <trip id="t137" depart="137" from="17/2to17/3" to="5/16to6/16" />
    <trip id="t138" depart="138" from="14/15to14/16" to="24/16to24/17" />
    <trip id="t139" depart="139" from="16/7to16/6" to="10/19to9/19" />
    <trip id="t140" depart="140" from="20/1to19/1" to="4/23to5/23" />
    <trip id="t141" depart="141" from="21/23to22/23" to="24/9to24/8" />
    <trip id="t142" depart="142" from="9/16to9/15" to="5/2to5/3" />
    <trip id="t143" depart="143" from="22/24to21/24" to="4/11to3/11" />
    <trip id="t144" depart="144" from="23/19to23/18" to="0/11to1/11" />
    <trip id="t145" depart="145" from="1/12to1/13" to="23/5to24/5" />
    <trip id="t146" depart="146" from="24/9to24/10" to="8/19to8/20" />
    <trip id="t147" depart="147" from="14/12to15/12" to="4/21to4/22" />
    <trip id="t148" depart="148" from="21/4to21/5" to="4/10to3/10" />
    <trip id="t149" depart="149" from="3/6to3/5" to="24/12to23/12" />
    <trip id="t150" depart="150" from="11/13to10/13" to="16/4to17/4" />
    <trip id="t151" depart="151" from="4/12to5/12" to="7/9to8/9" />
    <trip id="t152" depart="152" from="9/0to9/1" to="20/18to20/17" />
    <trip id="t153" depart="153" from="15/14to16/14" to="20/8to19/8" />
    <trip id="t154" depart="154" from="22/1to22/2" to="13/17to13/16" />
    <trip id="t155" depart="155" from="21/13to22/13" to="2/2to2/3" />
    <trip id="t156" depart="156" from="1/21to2/21" to="7/7to6/7" />
    <trip id="t157" depart="157" from="14/19to13/19" to="15/9to15/8" />
    <trip id="t158" depart="158" from="11/4to12/4" to="22/2to23/2" />
    <trip id="t159" depart="159" from="23/24to24/24" to="0/15to0/14" />
    <trip id="t160" depart="160" from="17/3to17/4" to="9/21to8/21" />
    <trip id="t161" depart="161" from="1/23to1/24" to="6/20to6/21" />
    <trip id="t162" depart="162" from="10/8to10/9" to="11/5to11/6" />
    <trip id="t163" depart="163" from="10/14to11/14" to="19/19to20/19" />
    <trip id="t164" depart="164" from="14/3to14/4" to="21/23to20/23" />
    <trip id="t165" depart="165" from="7/0to7/1" to="17/22to18/22" />
    <trip id="t166" depart="166" from="22/15to22/14" to="2/23to3/23" />
    <trip id="t167" depart="167" from="6/17to6/16" to="4/24to5/24" />
    <trip id="t168" depart="168" from="22/20to23/20" to="14/19to13/19" />
    <trip id="t169" depart="169" from="1/6to1/7" to="7/16to6/16" />
    <trip id="t170" depart="170" from="7/10to7/11" to="13/6to13/7" />
    <trip id="t171" depart="171" from="17/13to16/13" to="7/12to6/12" />
    <trip id="t172" depart="172" from="23/24to22/24" to="17/4to16/4" />
    <trip id="t173" depart="173" from="2/20to3/20" to="3/8to4/8" />
    <trip id="t174" depart="174" from="9/11to9/12" to="21/16to22/16" />
    <trip id="t175" depart="175" from="22/9to21/9" to="9/15to9/14" />
    <trip id="t176" depart="176" from="5/19to4/19" to="16/8to16/9" />
    <trip id="t177" depart="177" from="1/9to1/8" to="23/23to24/23" />
    <trip id="t178" depart="178" from="24/7to23/7" to="4/7to4/6" />
    <trip id="t179" depart="179" from="19/15to19/16" to="7/13to8/13" />
    <trip id="t180" depart="180" from="24/10to24/11" to="10/22to9/22" />
    <trip id="t181" depart="181" from="6/4to7/4" to="14/23to14/24" />
    <trip id="t182" depart="182" from="21/21to21/22" to="17/23to16/23" />
    <trip id="t183" depart="183" from="17/3to18/3" to="6/19to6/20" />
    <trip id="t184" depart="184" from="1/19to0/19" to="21/16to21/17" />
    <trip id="t185" depart="185" from="2/8to3/8" to="23/18to22/18" />
    <trip id="t186" depart="186" from="21/15to21/14" to="16/10to16/11" />
    <trip id="t187" depart="187" from="24/17to23/17" to="14/13to13/13" />
    <trip id="t188" depart="188" from="11/14to11/15" to="2/8to3/8" />
    <trip id="t189" depart="189" from="19/14to19/15" to="15/18to15/19" />
    <trip id="t190" depart="190" from="15/5to15/4" to="1/5to1/6" />
    <trip id="t191" depart="191" from="3/17to4/17" to="13/21to12/21" />
    <trip id="t192" depart="192" from="11/17to12/17" to="9/15to9/16" />
    <trip id="t193" depart="193" from="8/10to9/10" to="19/19to20/19" />
    <trip id="t194" depart="194" from="8/8to7/8" to="3/23to3/22" />
    <trip id="t195" depart="195" from="5/18to5/17" to="12/3to11/3" />
    <trip id="t196" depart="196" from="15/13to15/12" to="12/16to13/16" />
    <trip id="t197" depart="197" from="0/1to1/1" to="6/11to7/11" />
    <trip id="t198" depart="198" from="5/5to4/5" to="11/5to11/6" />
    <trip id="t199" depart="199" from="8/22to7/22" to="5/16to5/15" />
    <trip id="t200" depart="200" from="6/24to5/24" to="21/23to21/24" />
    <trip id="t201" depart="201" from="21/17to20/17" to="18/18to18/17" />
    <trip id="t202" depart="202" from="18/3to17/3" to="15/8to15/7" />
    <trip id="t203" depart="203" from="22/13to22/14" to="1/11to1/10" />
    <trip id="t204" depart="204" from="9/20to9/21" to="11/21to10/21" />
    <trip id="t205" depart="205" from="9/6to8/6" to="16/15to17/15" />
    <trip id="t206" depart="206" from="8/14to8/13" to="23/15to23/16" />
    <trip id="t207" depart="207" from="1/13to2/13" to="20/21to21/21" />
    <trip id="t208" depart="208" from="23/4to24/4" to="4/13to5/13" />
    <trip id="t209" depart="209" from="9/17to9/16" to="9/18to9/17" />
    <trip id="t210" depart="210" from="0/18to0/17" to="17/12to17/11" />
    <trip id="t211" depart="211" from="14/15to13/15" to="18/13to17/13" />
    <trip id="t212" depart="212" from="8/20to7/20" to="13/4to14/4" />
    <trip id="t213" depart="213" from="16/14to15/14" to="20/17to19/17" />
    <trip id="t214" depart="214" from="16/17to15/17" to="20/7to21/7" />
    <trip id="t215" depart="215" from="18/24to17/24" to="24/1to24/2" />
    <trip id="t216" depart="216" from="20/8to19/8" to="14/19to14/18" />
    <trip id="t217" depart="217" from="11/16to10/16" to="7/3to8/3" />
    <trip id="t218" depart="218" from="14/3to13/3" to="23/20to23/21" />
    <trip id="t219" depart="219" from="19/3to19/2" to="11/0to12/0" />
    <trip id="t220" depart="220" from="15/17to16/17" to="11/15to10/15" />
    <trip id="t221" depart="221" from="3/20to2/20" to="20/23to20/22" />
    <trip id="t222" depart="222" from="15/9to15/8" to="12/1to12/0" />
    <trip id="t223" depart="223" from="18/1to17/1" to="6/10to7/10" />
    <trip id="t224" depart="224" from="16/5to15/5" to="11/23to11/24" />
    <trip id="t225" depart="225" from="8/3to8/4" to="0/16to1/16" />
    <trip id="t226" depart="226" from="3/13to4/13" to="15/12to15/11" />
    <trip id="t227" depart="227" from="2/19to2/20" to="0/18to0/17" />
    <trip id="t228" depart="228" from="7/15to6/15" to="10/9to9/9" />
    <trip id="t229" depart="229" from="8/2to8/1" to="13/7to12/7" />
    <trip id="t230" depart="230" from="15/6to15/5" to="5/13to4/13" />
    <trip id="t231" depart="231" from="3/20to4/20" to="10/14to9/14" />
    <trip id="t232" depart="232" from="16/7to16/6" to="8/14to7/14" />
    <trip id="t233" depart="233" from="11/23to10/23" to="1/6to0/6" />
    <trip id="t234" depart="234" from="6/2to6/3" to="8/3to8/4" />
    <trip id="t235" depart="235" from="4/12to4/11" to="7/22to7/23" />
    <trip id="t236" depart="236" from="17/10to16/10" to="19/1to20/1" />
    <trip id="t237" depart="237" from="5/10to5/11" to="9/15to9/16" />
    <trip id="t238" depart="238" from="16/10to17/10" to="15/10to15/11" />
    <trip id="t239" depart="239" from="11/14to11/13" to="21/10to21/9" />
    <trip id="t240" depart="240" from="10/14to11/14" to="9/21to9/22" />
    <trip id="t241" depart="241" from="8/1to8/0" to="17/23to17/24" />
    <trip id="t242" depart="242" from="15/13to15/14" to="5/3to5/4" />
    <trip id="t243" depart="243" from="6/17to6/16" to="9/20to10/20" />
    <trip id="t244" depart="244" from="9/18to8/18" to="17/23to17/22" />
    <trip id="t245" depart="245" from="17/4to18/4" to="4/17to4/16" />
    <trip id="t246" depart="246" from="19/21to18/21" to="4/21to5/21" />
    <trip id="t247" depart="247" from="8/20to9/20" to="17/18to17/17" />
    <trip id="t248" depart="248" from="7/9to6/9" to="21/12to21/11" />
    <trip id="t249" depart="249" from="8/3to7/3" to="24/10to23/10" />
    <trip id="t250" depart="250" from="22/11to22/10" to="21/18to22/18" />
    <trip id="t251" depart="251" from="15/21to15/22" to="11/7to12/7" />
    <trip id="t252" depart="252" from="9/21to9/20" to="14/23to13/23" />
    <trip id="t253" depart="253" from="10/8to10/9" to="11/16to11/17" />
    <trip id="t254" depart="254" from="10/21to9/21" to="5/20to4/20" />
    <trip id="t255" depart="255" from="15/11to15/10" to="5/19to5/18" />
    <trip id="t256" depart="256" from="12/4to13/4" to="23/23to23/24" />
    <trip id="t257" depart="257" from="23/22to23/23" to="23/4to22/4" />
    <trip id="t258" depart="258" from="19/18to19/17" to="9/11to10/11" />
    <trip id="t259" depart="259" from="23/18to23/19" to="8/24to9/24" />
    <trip id="t260" depart="260" from="7/17to6/17" to="24/16to23/16" />
    <trip id="t261" depart="261" from="0/21to1/21" to="8/23to8/22" />
    <trip id="t262" depart="262" from="2/16to3/16" to="9/11to8/11" />
    <trip id="t263" depart="263" from="13/5to13/6" to="11/11to11/10" />
    <trip id="t264" depart="264" from="0/12to1/12" to="2/7to1/7" />
    <trip id="t265" depart="265" from="4/1to4/2" to="22/0to23/0" />
    <trip id="t266" depart="266" from="21/18to22/18" to="10/11to9/11" />
    <trip id="t267" depart="267" from="8/8to9/8" to="20/7to20/6" />
    <trip id="t268" depart="268" from="22/11to23/11" to="22/1to23/1" />
    <trip id="t269" depart="269" from="9/18to9/19" to="10/15to10/16" />
    <trip id="t270" depart="270" from="1/16to0/16" to="20/4to20/5" />
    <trip id="t271" depart="271" from="20/10to19/10" to="22/13to23/13" />
    <trip id="t272" depart="272" from="5/12to4/12" to="1/6to2/6" />
    <trip id="t273" depart="273" from="13/13to13/12" to="17/18to16/18" />
    <trip id="t274" depart="274" from="24/20to24/21" to="17/18to17/17" />
    <trip id="t275" depart="275" from="20/11to20/10" to="15/8to15/9" />
    <trip id="t276" depart="276" from="6/5to6/4" to="1/6to2/6" />
    <trip id="t277" depart="277" from="4/1to4/0" to="15/7to16/7" />
    <trip id="t278" depart="278" from="6/4to7/4" to="16/3to16/2" />
    <trip id="t279" depart="279" from="8/19to8/18" to="20/20to20/21" />
    <trip id="t280" depart="280" from="20/19to20/20" to="10/12to11/12" />
    <trip id="t281" depart="281" from="18/24to19/24" to="16/19to17/19" />
    <trip id="t282" depart="282" from="6/13to5/13" to="24/18to23/18" />
    <trip id="t283" depart="283" from="1/23to2/23" to="19/6to19/5" />
    <trip id="t284" depart="284" from="9/3to9/4" to="14/4to14/5" />
    <trip id="t285" depart="285" from="18/20to18/19" to="7/5to8/5" />
    <trip id="t286" depart="286" from="0/23to0/24" to="11/18to11/19" />
    <trip id="t287" depart="287" from="8/10to7/10" to="22/22to21/22" />
    <trip id="t288" depart="288" from="23/9to23/8" to="1/11to1/10" />
    <trip id="t289" depart="289" from="1/2to2/2" to="23/0to24/0" />
    <trip id="t290" depart="290" from="6/11to7/11" to="7/5to7/6" />
    <trip id="t291" depart="291" from="9/11to10/11" to="16/10to16/9" />
    <trip id="t292" depart="292" from="24/7to24/6" to="4/10to4/11" />
    <trip id="t293" depart="293" from="0/23to1/23" to="9/2to8/2" />
    <trip id="t294" depart="294" from="1/11to2/11" to="16/23to16/22" />
    <trip id="t295" depart="295" from="13/17to12/17" to="5/24to5/23" />
    <trip id="t296" depart="296" from="23/14to22/14" to="23/7to23/6" />
    <trip id="t297" depart="297" from="24/12to24/11" to="0/12to0/11" />
    <trip id="t298" depart="298" from="5/6to6/6" to="15/17to15/18" />
    <trip id="t299" depart="299" from="17/1to17/2" to="21/3to21/2" />
    <trip id="t300" depart="300" from="2/24to3/24" to="3/13to3/14" />
    <trip id="t301" depart="301" from="19/10to20/10" to="16/9to16/8" />
    <trip id="t302" depart="302" from="23/1to23/0" to="16/13to15/13" />
    <trip id="t303" depart="303" from="12/23to12/24" to="7/24to7/23" />
    <trip id="t304" depart="304" from="4/11to4/10" to="22/1to22/2" />
    <trip id="t305" depart="305" from="11/22to11/23" to="17/24to17/23" />
    <trip id="t306" depart="306" from="3/9to2/9" to="4/1to5/1" />
    <trip id="t307" depart="307" from="1/24to0/24" to="13/24to14/24" />
    <trip id="t308" depart="308" from="3/13to3/12" to="18/16to18/15" />
    <trip id="t309" depart="309" from="21/6to21/5" to="11/9to11/8" />
    <trip id="t310" depart="310" from="8/15to7/15" to="18/8to17/8" />
    <trip id="t311" depart="311" from="11/12to12/12" to="11/22to11/23" />
    <trip id="t312" depart="312" from="7/11to6/11" to="14/10to15/10" />
    <trip id="t313" depart="313" from="11/4to11/5" to="11/21to11/22" />
    <trip id="t314" depart="314" from="0/7to0/6" to="0/13to0/12" />
    <trip id="t315" depart="315" from="9/5to9/4" to="5/1to6/1" />
    <trip id="t316" depart="316" from="4/3to3/3" to="19/17to20/17" />
    <trip id="t317" depart="317" from="16/6to16/7" to="4/12to3/12" />
    <trip id="t318" depart="318" from="8/18to8/17" to="16/11to16/12" />
    <trip id="t319" depart="319" from="17/0to16/0" to="1/8to1/9" />
    <trip id="t320" depart="320" from="12/7to12/6" to="18/0to17/0" />
    <trip id="t321" depart="321" from="3/1to3/2" to="19/24to18/24" />
    <trip id="t322" depart="322" from="13/2to13/1" to="11/4to11/5" />
    <trip id="t323" depart="323" from="1/12to1/11" to="5/3to6/3" />
    <trip id="t324" depart="324" from="13/22to13/23" to="4/17to4/18" />
    <trip id="t325" depart="325" from="13/21to14/21" to="7/4to7/3" />
    <trip id="t326" depart="326" from="9/2to9/1" to="3/5to3/4" />
    <trip id="t327" depart="327" from="24/1to23/1" to="19/8to20/8" />
    <trip id="t328" depart="328" from="1/15to0/15" to="4/21to3/21" />
    <trip id="t329" depart="329" from="20/19to19/19" to="11/7to11/6" />
    <trip id="t330" depart="330" from="12/12to13/12" to="20/9to19/9" />
    <trip id="t331" depart="331" from="21/4to21/3" to="15/11to15/10" />
    <trip id="t332" depart="332" from="9/10to9/11" to="21/22to20/22" />
    <trip id="t333" depart="333" from="5/1to4/1" to="0/22to0/21" />
    <trip id="t334" depart="334" from="18/15to18/16" to="16/16to16/17" />
    <trip id="t335" depart="335" from="24/9to24/10" to="14/17to15/17" />
    <trip id="t336" depart="336" from="7/1to7/0" to="4/24to3/24" />
    <trip id="t337" depart="337" from="20/12to20/13" to="22/17to22/16" />
    <trip id="t338" depart="338" from="24/9to23/9" to="21/1to22/1" />
    <trip id="t339" depart="339" from="21/15to21/16" to="6/14to6/13" />
    <trip id="t340" depart="340" from="8/19to8/20" to="7/23to6/23" />
    <trip id="t341" depart="341" from="23/16to22/16" to="20/5to20/6" />
    <trip id="t342" depart="342" from="3/14to3/15" to="11/15to11/16" />
    <trip id="t343" depart="343" from="20/20to20/19" to="9/14to9/13" />
    <trip id="t344" depart="344" from="20/8to20/9" to="13/11to13/10" />
    <trip id="t345" depart="345" from="23/9to24/9" to="11/16to10/16" />
    <trip id="t346" depart="346" from="9/7to9/8" to="5/8to5/9" />
    <trip id="t347" depart="347" from="11/14to12/14" to="1/5to0/5" />
    <trip id="t348" depart="348" from="15/1to14/1" to="18/6to17/6" />
    <trip id="t349" depart="349" from="13/13to12/13" to="20/7to21/7" />
    <trip id="t350" depart="350" from="21/24to20/24" to="1/1to1/0" />
    <trip id="t351" depart="351" from="20/7to21/7" to="22/0to22/1" />
    <trip id="t352" depart="352" from="15/22to14/22" to="24/6to23/6" />
    <trip id="t353" depart="353" from="14/0to14/1" to="13/18to13/17" />
    <trip id="t354" depart="354" from="19/16to19/15" to="24/11to24/10" />
    <trip id="t355" depart="355" from="2/19to2/18" to="20/21to20/20" />
    <trip id="t356" depart="356" from="20/3to20/4" to="8/17to7/17" />
    <trip id="t357" depart="357" from="13/11to14/11" to="5/0to6/0" />
    <trip id="t358" depart="358" from="20/12to20/11" to="8/3to8/2" />
    <trip id="t359" depart="359" from="5/10to6/10" to="10/20to11/20" />
    <trip id="t360" depart="360" from="0/11to0/10" to="19/4to19/5" />
    <trip id="t361" depart="361" from="19/12to19/13" to="10/11to10/12" />
    <trip id="t362" depart="362" from="16/3to15/3" to="13/1to13/0" />
    <trip id="t363" depart="363" from="5/4to5/5" to="15/20to16/20" />
    <trip id="t364" depart="364" from="2/8to2/7" to="17/10to17/11" />
    <trip id="t365" depart="365" from="24/5to23/5" to="2/7to2/6" />
    <trip id="t366" depart="366" from="6/17to6/18" to="6/8to5/8" />
    <trip id="t367" depart="367" from="21/7to20/7" to="0/23to0/24" />
    <trip id="t368" depart="368" from="24/6to24/7" to="1/14to1/15" />
    <trip id="t369" depart="369" from="2/20to2/21" to="9/21to10/21" />
    <trip id="t370" depart="370" from="14/11to13/11" to="12/10to11/10" />
    <trip id="t371" depart="371" from="20/7to19/7" to="22/8to22/9" />
    <trip id="t372" depart="372" from="16/16to17/16" to="22/20to22/21" />
    <trip id="t373" depart="373" from="8/12to7/12" to="24/19to23/19" />
    <trip id="t374" depart="374" from="0/24to1/24" to="15/7to16/7" />
    <trip id="t375" depart="375" from="21/20to21/19" to="16/3to16/4" />
    <trip id="t376" depart="376" from="9/10to9/11" to="12/19to12/20" />
    <trip id="t377" depart="377" from="1/9to1/8" to="19/16to19/17" />
    <trip id="t378" depart="378" from="16/2to16/1" to="20/6to20/5" />
    <trip id="t379" depart="379" from="8/20to8/21" to="13/1to14/1" />
    <trip id="t380" depart="380" from="1/12to1/13" to="22/9to21/9" />
    <trip id="t381" depart="381" from="7/0to7/1" to="21/8to21/9" />
    <trip id="t382" depart="382" from="8/22to7/22" to="9/18to8/18" />
    <trip id="t383" depart="383" from="3/22to3/21" to="17/11to17/10" />
    <trip id="t384" depart="384" from="11/8to12/8" to="10/24to11/24" />
    <trip id="t385" depart="385" from="11/13to11/12" to="5/14to6/14" />
    <trip id="t386" depart="386" from="11/18to12/18" to="24/16to23/16" />
    <trip id="t387" depart="387" from="5/11to6/11" to="0/23to0/22" />
    <trip id="t388" depart="388" from="23/1to22/1" to="15/15to14/15" />
    <trip id="t389" depart="389" from="18/9to17/9" to="22/13to22/12" />
    <trip id="t390" depart="390" from="18/21to18/20" to="5/21to5/22" />
    <trip id="t391" depart="391" from="3/5to3/4" to="22/22to22/21" />
    <trip id="t392" depart="392" from="17/16to16/16" to="10/0to10/1" />
    <trip id="t393" depart="393" from="0/20to0/21" to="8/5to7/5" />
    <trip id="t394" depart="394" from="18/17to18/16" to="9/7to8/7" />
    <trip id="t395" depart="395" from="6/17to7/17" to="9/20to9/21" />
    <trip id="t396" depart="396" from="1/11to1/10" to="0/19to0/20" />
    <trip id="t397" depart="397" from="23/21to24/21" to="6/9to5/9" />
    <trip id="t398" depart="398" from="21/20to22/20" to="16/3to17/3" />
    <trip id="t399" depart="399" from="9/24to9/23" to="23/15to23/14" />
    <trip id="t400" depart="400" from="5/4to5/5" to="10/2to9/2" />
    <trip id="t401" depart="401" from="20/21to21/21" to="20/0to19/0" />
    <trip id="t402" depart="402" from="2/9to1/9" to="19/3to20/3" />
    <trip id="t403" depart="403" from="17/6to18/6" to="24/18to23/18" />
    <trip id="t404" depart="404" from="19/24to19/23" to="9/22to9/21" />
    <trip id="t405" depart="405" from="2/6to1/6" to="11/23to11/22" />
    <trip id="t406" depart="406" from="16/9to17/9" to="3/13to4/13" />
    <trip id="t407" depart="407" from="2/23to2/24" to="23/10to23/9" />
    <trip id="t408" depart="408" from="1/24to2/24" to="9/23to10/23" />
    <trip id="t409" depart="409" from="15/7to15/8" to="7/3to8/3" />
    <trip id="t410" depart="410" from="5/14to5/15" to="19/19to20/19" />
    <trip id="t411" depart="411" from="13/15to14/15" to="12/11to11/11" />
    <trip id="t412" depart="412" from="17/8to16/8" to="0/4to0/5" />
    <trip id="t413" depart="413" from="20/6to19/6" to="9/13to10/13" />
    <trip id="t414" depart="414" from="6/20to6/21" to="21/8to21/7" />
    <trip id="t415" depart="415" from="13/12to13/11" to="13/11to13/10" />
    <trip id="t416" depart="416" from="24/4to24/3" to="17/19to17/20" />
    <trip id="t417" depart="417" from="1/1to0/1" to="24/5to23/5" />
    <trip id="t418" depart="418" from="17/22to18/22" to="18/21to18/22" />
    <trip id="t419" depart="419" from="9/18to8/18" to="13/19to13/18" />
    <trip id="t420" depart="420" from="13/9to13/10" to="6/15to6/14" />
    <trip id="t421" depart="421" from="2/14to3/14" to="2/23to2/24" />
    <trip id="t422" depart="422" from="11/23to10/23" to="19/22to19/21" />
    <trip id="t423" depart="423" from="15/24to16/24" to="10/14to10/15" />