<?xml version="1.0"?>
<!-- generated on Fri Jan 11 16:13:26 2013 by SUMO duarouter Version 0.15.0
<?xml version="1.0" encoding="UTF-8"?>

<configuration xmlns:xsi="http://www.w3.org/2001/XMLSchema-instance" xsi:noNamespaceSchemaLocation="http://sumo.sf.net/xsd/duarouterConfiguration.xsd">

    <input>
        <net-file value="milanPurged.sumo.xml"/>
        <alternative-files value="trips_048.rou.alt.xml"/>
        <weight-files value="dump_048_900.xml"/>
    </input>

    <output>
        <output-file value="trips_049.rou.xml"/>
        <vtype-output value=""/>
        <exit-times value="false"/>
    </output>

    <processing>
        <ignore-errors value="true"/>
        <max-alternatives value="5"/>
        <with-taz value="false"/>
        <routing-algorithm value="dijkstra"/>
        <gawron.beta value="0.9"/>
        <gawron.a value="0.5"/>
        <keep-all-routes value="false"/>
        <logit value="false"/>
        <logit.beta value="0.15"/>
        <logit.gamma value="1"/>
    </processing>

    <time>
        <begin value="0"/>
    </time>

    <report>
        <verbose value="false"/>
        <no-warnings value="false"/>
        <no-step-log value="true"/>
    </report>

    <random_number>
        <random value="false"/>
    </random_number>

</configuration>
-->
<routes xmlns:xsi="http://www.w3.org/2001/XMLSchema-instance" xsi:noNamespaceSchemaLocation="http://sumo.sf.net/xsd/routes_file.xsd">
  <route id="route1" edges="4868917 -4868917 37633925 112610979 112610983 147972353 112610981 4868910 96017784 147680936 -27625579"/>
  <route id="route2" edges="149768937 137135364#0 137135364#1 38001476 40980376 40980377 31898400#2 37063199#0 37063199#1 47034477#0 47034477#1 47034477#2 160615597#0 160615597#1 160615597#2 160615598#0 160615598#1 160615598#2 146379323#1 146379314 146379315#0 38001123#1 42453414#0 42453415 -31009602#1 -31009602#0 -165090418 112602523#0 112602523#1 112602523#2 -53896958 7980051 60005026#0 60005026#1 60005026#2 60005026#3 145019295#0 145019295#1 23729251#0 23729251#1 -23729251#1"/>
  <route id="route3" edges="-141634886#3 -141634886#2 -141634886#1 143276335#0 136990352 145017162#0 4494794#0 4494794#1 51855670#0 51855670#2 23978409 51855667#0 51855667#1 51855667#2 51855667#3 51855667#4 51855667#5 7980566"/>
  <route id="route4" edges="143276337#2 4857477#0 4857477#1 137191639#0 137191639#2 137191639#3 149764465 137191640#0 137191640#1 137191640#2 -164013605 -164013608#1 -164013608#0 -43062000 53771531 164013609#0 164013609#1 56314378 43061998 164013612 149765129 115676657#0 115676657#1 -89873771 89873766#0 89873766#1 89873766#2 -58666559 164111025 37732651 -4073491 31068405#0 31068405#1 -164111020#1 164111029 -164111029"/>
  <route id="route5" edges="5110309#1 -5110311#1 -5110311#0 -56349416#1 4868908#0 4868908#1 4868908#2 166532726#0 166532726#1 166532727#3 134580468#0 137135364#1 38001476 40980376 40980377 31898400#2 37063199#0 37063199#1 47034477#0 47034477#1 47034477#2 160615597#0 160615597#1 160615597#2 160615598#0 160615598#1 160615598#2 146379323#1 146379314 146379315#0 38001123#1 42453505#0 42453505#1 -31009602#1 -31009602#0 -165090418 112602523#0 165090427#0 165090445 165090427#3 165090431#0"/>
  <route id="route6" edges="8311387 43375972#3 43375972#4 4520105 45671217 45671218#0 45671218#1 134398143 4520104#0 138141248 147175264 27745290#1 57986382 4683845#0 4683845#1 43165905#1 43015940#2 43015726 43015611#0 43015611#1 23084178#0 23084178#2 166039358 43015733 23084109 -141634886#8 7980547#0 7980547#1 -120458053 7980544 4520054 4520082#0 4520082#1 -145019303#1 -145019303#0 145019298 165090435#3 -60005026#3 -60005026#2"/>
  <route id="route7" edges="4018815#2 14348297#1 37634056#2 134408764#3 59429225 134550446 147175289 112610983 147972353 112610981 4868910 96017784 147680936 -27625579 -27625572#1 -27625572#0 -24319228#1 37335403#0 37335403#1 5110266#1 37335402#0 37335402#1 37335402#2 37335402#3 -145014444#4 145014444#4"/>
  <route id="route8" edges="164111015 -56910633#0 -42453415 42453414#1 42453519 112602522#2 112602524#1 25096212#0 25096212#1 25096212#2 23227334#0 23227334#1 23227377 23227390 145014444#1 145014444#2 145014444#3 23227412 5110266#0 5110266#1 4868905#0 4868905#1 4868905#2 137135361#1 137135363 137135362 4857494"/>
  <route id="route9" edges="146537833 37063200#1 112360880 145469493 -10753783#2 138760678 -27595967#2 -27595967#1 -27595967#0 166532726#0 166532726#1 166532727#3 15239886#1 37063198#0 37063198#1 37063199#0 37063199#1 47034477#0 47034477#1 47034477#2 160615597#0 160615597#1 160615597#2 160615598#0 160615598#1 160615598#2 146379323#1 146379314 146379315#0 38001123#1 42453505#0 42453505#1 -31009602#1 -31009602#0 -165090418 112602523#0 112602523#1 112602523#2 -53896958 -146660067 -56935336 -53896956 -10516170 10516169 56314378 43061997 43061999#0 43062000 164013608#0 164013608#1 164013605 -164013606 -145018316#3 27755546#0 -164013614 164013614"/>
  <route id="route10" edges="-4520070 4520048#2 4520048#3 4520072#2 4520072#3 4520074 4520075 7980550 24711534 120458053 4520055#0 4520055#1"/>
  <route id="route11" edges="4018835#0 134552888#1+134552891#1 37669517#1 134408842#0 134408842#1 134408842#2 59429225 134550446 147175289 112610983 147972353 112610981 4868910 96017784 147680936 -27625579 -27625572#1 -27625572#0 -24319228#1 37335403#0 37335403#1 5110266#1 37335402#0 37335402#1 37335402#2 37335402#3 145014444#5 -12543634 -31898400#0 26613344#0 26613344#1 52783712 47034477#1 47034477#2 160615597#0 160615597#1 160615597#2 160615598#0 160615598#1 160615598#2 -45792298#0 146379317 55283910 142651260 142651267#0+142653784#0 142651267#2+142653784#2 31068405#0 31068405#1 -164111020#1 -164111020#0 164111019#0 164111019#1 164111019#2 164111019#3 -156996315 -109301504"/>
  <route id="route12" edges="-4868922#0 4868922#0 4868922#1 4868925#0 4868925#1 4868925#2 134408764#1 134408764#2 134408764#3 59429225 134550446 147175289 112610983 147972353 112610981 4868910 96017784 147680936 -27625579 -27625572#1 -27625572#0 -24319228#1 37335403#0 37335403#1 5110266#1 37335402#0 37335402#1 37335402#2 37335402#3 -145014444#4 -145014444#3 -145014444#2 145014444#2"/>
  <route id="route13" edges="28660860#0 -57742686 57742680#0 57742680#2 23227359 111737367#0 145016429#1 23227363 141633906 145019300#0 145019300#1 145019300#2 141633904 134235719#1 4520053 8167122 7980551 24711534 7980544 4520054 -4520074 4520074"/>
  <route id="route14" edges="4604990#1 4604988#1 4604992 164013611#2 58666557 53771529#0 53771529#1 9823618#0 9823618#1 9823618#2 149764466 51855670#0 51855670#2 23978409 51855667#0 51855667#1 39267983"/>
  <route id="route15" edges="23227375#1 111737367#0 145016429#1 23227363 141633906 145019300#0 145019300#1 145019300#2 141633904 134235719#1 4520053 8167122 7980551 24711534 7980544 7980549 120458049 24815726#0 24815726#1 -141634886#2 -141634886#1 165990904 4520047#1 4520068"/>
  <route id="route16" edges="4868914 33080415#3 4868915#0 4868915#1 4868915#2 4494327#4 147680936 4082401 96017796#0 96017796#1 148365467 145593783 148358570#0 148358570#1 145593784#0 145593784#1 147175290#1 147175293#0 147175293#1 37634056#2 37634056#3 8132446#3 8432342 4868918#0 4868918#1 4868921#0 4868921#1 24971165#0 4018825#7 4018785#0 4018785#1 4018816#0 164247789#4 43015637 43015611#0 43015611#1 4494774#7 -165990917"/>
  <route id="route17" edges="7980550 24711534 7980544 4520054 4520075 4520080#1 4520080#2 4520081#0 4520044 27756045 -27755141 27755143 -145019303#0 145019298 165090435#3 145019295#0 145019295#1 145018316#0 145018316#1 164013613 43061432 -43062000 53771531 164013609#0 164013609#1 56314378 43061998 164013612 149765129 115676657#0 115676657#1 -89873771 89873766#0 89873766#1 89873766#2"/>
  <route id="route18" edges="43160119#0 4018825#3 4018825#4 4018825#5 4018825#6 4018825#7 4018785#0 4018785#1 4018816#0 146536189#1 146536189#2 137134711#0 137134711#1 137134711#2 137134711#3 137191639#0 51855670#2 23978409 51855667#0 51855667#1 51855667#2 46273836 46273835#1"/>
  <route id="route19" edges="23227359 111737367#0 145016429#1 145016429#2 112602527#2 112602527#3 146380971 25096212#0 25096212#1 -79673985 -79673984 30325860#1 25096222#0"/>
  <route id="route20" edges="4494801#0 4494801#1 4494801#2 4494801#3 23978428#4 10569217#0 10569217#1 149764466 137191639#3 149764465 137191640#0 137191640#1 137191640#2 -164013605 -164013608#1 4519612#0 4519603#2 56302955 43062001 53771531 116883176 53896956 56935336 146660067 53896958 112602525#0 112602525#1 112602525#2 165090424 42453343 112602524#1 14350356#0 146379315#3"/>
  <route id="route21" edges="57742680#3 -57742680#3 23227359 111737367#0 145016429#1 23227363 145018317#0 4520077#0 4520077#1 86059925#0 86059925#1"/>
  <route id="route22" edges="4868918#0 24606605 24606606#1 24606606#2 4018788#4 4018788#5 28893947#3 147972354 112610983 147972353 112610981 85847365 4018815#0 134553981#1 134550444#2 -142387176 -37634347"/>
  <route id="route23" edges="4520077#0 4520077#1 86059925#0 86059925#1 4520080#2 4520080#0 7980550 24711534 7980544 7980549 120458049 24815726#0 24815726#1 141634886#3 44935827#0 44935827#1 166039362 166039363#1 166039363#2 44935939 165990907#3"/>
  <route id="route24" edges="164070448#1 164070448#2 37338981 4494794#1 51855670#0 136990483#2 -145017162#0 145017163 165990906 4494778 7980543#0 7980543#1 4494779 4494774#3 4494774#4 23084178#0 23084178#2 166039358 43015940#0 27745095 43016041#0 146536204#3 134407088#0 138141254#0 138141254#2 138141249#0 134407836#0 134407836#1 112610995 147175273 134408764#0 8132446#0 8132446#1 8132446#2 8132446#3 8132446#4 8132442#0 8132442#1 4868917 85847370#0 85847370#1 111767996 4494477#0 4494477#1 4494477#2 4494477#3 4494477#4 144795651 59242849 4857499#0 5110309#0 -102464581 102464581"/>
  <route id="route25" edges="4045620#1 118990868#1 160582438#0 160582438#1 136990479#0 136990479#1 136990479#2 136990479#3 136990483#0 136990483#2 -145017162#0 145017163 165990906 4494778 7980543#0 7980543#1 4494779 4494774#3 4494774#4 23084178#0 49357165 -43165905#1 24606659#1 24606659#2 138141252#1 -43160119#0 147175268#1 4018845#0 8132446#0 134408764#2 134408764#3 59429225 134550446 147175289 112610983 147972353 112610981 4868910 96017784 147680936 -27625579 -27625572#1 -27625572#0 -24319228#1 24319228#1"/>
  <route id="route26" edges="21628608 10569217#0 10569217#1 149764466 137191639#3 149764465 137191640#0 137191640#1 137191640#2 -164013605 -164013608#1 4519612#0 4519603#2 56302955 43062001 53771531 164013609#0 164013609#1 56314378 43061998 164013612 149765129 115676657#0 115676657#1 -89873771 89873766#0 89873766#1 165090431#0 165090439"/>
  <route id="route27" edges="-31898400#0 26613344#0 26613344#1 52783712 47034477#1 47034477#2 160615597#0 160615597#1 160615597#2 160615598#0 160615598#1 160615598#2 146379323#1 146379314 146379315#0 38001123#1 42453414#0 42453415 -31009602#1 -31009602#0 -165090418 112602523#0 112602523#1 112602523#2 -53896958 7980051 60005026#0 60005026#1 60005026#2 60005026#3 145019295#0 145019295#1 23729251#0 23729251#1 23729251#2 23729238 -43144507"/>
  <route id="route28" edges="26612919 -58666560 115676657#0 115676657#1 -89873771 89873766#0 89873766#1 165090431#0 165090426#1 112602523#2 112602525#0 112602525#1 112602525#2 165090424 42453343 112602524#1 25096212#0 25096212#1 25096212#2 25096211#0 25096211#1 25096211#2 31898400#0 12543634 145014444#6 145014442 40980378 40980379#0 40980379#2 12543638 162729496 146537835"/>
  <route id="route29" edges="27756067#0 27756067#1 4520046#2 4520071 4520069 4520048#1 4520048#2 4520049 24815726#1 141634886#3 44935827#0 44935827#1 166039362 166039363#1 166039363#2 44935939 165990907#3 4494778 7980543#0 7980543#1 4494779 4494774#3 -4494773 7980541#0 7980541#1 4857479#1 4857479#2 4857479#3 4018851#0 4018851#1 4018851#2"/>
  <route id="route30" edges="56935336 146660067 53896958 112602525#0 112602525#1 112602525#2 165090424 42453343 112602524#1 25096212#0 25096212#1 25096212#2 23227334#0 23227334#1 23227377 23227390 145014444#1 145014444#2 145014444#3 23227412 5110266#0 5110266#1 4868905#0 4868905#1 4868905#2 4868905#3 166532727#1 27595966#0 27595966#1 4868908#2 27595967#0"/>
  <route id="route31" edges="57742680#2 23227359 111737367#0 145016429#1 23227363 145018317#0 4520077#0 4520077#1 86059925#0 86059925#1 4520080#2 4520080#0 7980550 24711534 7980544 7980549 120458049 24815726#0 24815726#1 141634886#3"/>
  <route id="route32" edges="24712098#0 24712098#1 24712098#2 4858691#3 4858691#4 24712056 32780254#0 4018788#3 4018788#4 4018788#5 28893947#3 147972354 112610983 147972353 112610981 4868910 96017784 147680936 -27625579 -27625572#1 -27625572#0 -24319228#1 37335403#0 37335403#1 5110266#1 37335402#0 37335402#1 37335402#2 37335402#3 145014444#5 -12543634 -31898400#0 26613344#0 26613344#1 52783712 47034477#1 47034477#2 160615597#0 160615597#1 160615597#2 160615598#0 160615598#1 160615598#2 146379323#1 146379314 146379315#0 38001123#1 42453505#0 42453505#1 -31009602#1 -31009602#0 -165090418 112602523#0 112602523#1"/>
  <route id="route33" edges="147972353 112610981 4868910 96017784 147680936 -27625579 -27625572#1 -27625572#0 -24319228#1 37335403#0 37335403#1 5110266#1 37335402#0 37335402#1 37335402#2 37335402#3 -145014444#4 -145014444#3 -145014444#2 -145014444#1 -145014444#0 -57742680#7 -57742680#6 -57742680#5 -57742680#4 -57742680#3 23227359 111737367#0 145016429#1 23227363 145018317#0 145018317#1 165090435#0 165090435#2 165090435#3 145019295#0 145019295#1 23729251#0 23729251#1 23729251#2 60005025#0"/>
  <route id="route34" edges="166532727#2 166532727#3 15239886#1 37063198#0 37063198#1 -31898400#2 -31898400#1 12543634 -145014444#5 -145014444#4 -145014444#3 -145014444#2 -145014444#1 -145014444#0 -57742680#7 -57742680#6 -57742680#5 -57742680#4 -57742680#3 23227359 111737367#0 145016429#1 23227363 141633906 145019300#0 145019300#1 145019300#2 141633904 134235719#1 4520053 8167122 7980551 24711534 7980544 7980549 120458049 24815726#0 24815726#1 -141634886#2 -141634886#1"/>
  <route id="route35" edges="-4868922#1 4868922#1 4868925#0 4868925#1 4868925#2 8132446#0 8132446#1 8132446#2 8132446#3 8132446#4 8132442#0 8132442#1 37633925 112610979 8132444 148126139 112610981 85847365 4018815#0 4018815#2 4018835#0"/>
  <route id="route36" edges="32263849#2 23982227 46273835#0 46273835#1 46273835#3 23978410#0 23978410#1 136990483#0 136990483#2 -145017162#0 165990910 4520061#0 4520047#0 4520047#1 4520048#0 4520048#1 4520048#2 4520048#3 4520072#2 4520072#3 4520074 4520075 4520080#1 -86059925#1 134397031 -4520088 141633903 145019300#2 141633904"/>
  <route id="route37" edges="26613344#0 26613344#1 163757305#0 163757305#1 -31898400#1 12543634 -145014444#5 -145014444#4 23227412 5110266#0 5110266#1 4868904#0 4868904#1 27625572#0 27625572#1 27625579 4082401 96017796#0 96017796#1 148365467 145593783 148358570#0 148358570#1 23227646 85847365 145593787 85847370#0 24606640#0 24606640#1 24606641 137134716#1 4018788#4 4018788#5"/>
  <route id="route38" edges="139591716 23978428#2 23978428#3 23978428#4 10569217#0 10569217#1 149764466 137191639#3 149764465 137191640#0 137191640#1 137191640#2 -164013605 -164013608#1 4519612#0 4519603#2 56302955 43062001 53771531 116883176 53896956 56935336 146660067 53896958 112602525#0 112602525#1 112602525#2 165090424 42453343 112602524#1 25096212#0 25096212#1 25096212#2 23227334#0 23227334#1 23227377 23227390 145014444#1 145014444#2 145014444#3 23227412 5110266#0 5110266#1 4868905#0 4868905#1 4868905#2 4868905#3 41773063 4868908#1"/>
  <route id="route39" edges="-53896956 53896956 56935336 146660067 53896958 112602525#0 165090432#0 165090432#1 165090432#2 -145018317#1 -145018317#0 141633906 145019300#0 145019300#1 145019300#2 145019300#3"/>
  <route id="route40" edges="4520095#1 43375972#4 43375972#0 43375972#1 8311371 147175277#0 147175277#1 8132446#1 8432343#0 8432343#1 4868921#1"/>
  <route id="route41" edges="-145014444#5 -145014444#4 23227412 5110266#0 5110266#1 4868904#0 4868904#1 27625572#0 27625572#1 27625579 4082401 96017796#0 96017796#1 148365467 145593783 148358570#0 148358570#1"/>
  <route id="route42" edges="24712056 32780254#0 4018788#3 4018788#4 4018788#5 28893947#3 147972344 134550448 134409187 147175293#0 147175293#1 37634056#2 37634056#3 8132446#3 8432342 4868918#0 4868918#1 4868921#0 4868921#1 24971165#0 4018825#7 4018785#0 4018785#1 4018816#0 146536189#1 4494771#1 24972176#2 7980541#0 7980541#1 137134711#3 137191639#0 137191639#2 137191639#3 149764465 137191640#0 137191640#1 137191640#2 -164013607 -32013351 164473826#6 164473826#7 164473826#0 164473826#1 4012020#0 -4011920#3"/>
  <route id="route43" edges="-23331418#0 146379319#1 146379316 146379314 146379315#0 146379315#1 146379315#2 146379315#3 146379324#0 25096212#0 25096212#1 25096212#2 25096211#0 25096211#1 25096211#2 31898400#0 31898400#1 31898400#2 -31898400#2"/>
  <route id="route44" edges="4494801#0 4494801#1 4494801#2 139591715 115346437#3 115346437#4 136990479#3 136990483#0 137191639#2 137191639#3 149764465 137191640#0 137191640#1 137191640#2 -164013605 -164013608#1 4519612#0 4519603#2 -4519603#2"/>
  <route id="route45" edges="4604996 4604994 164013611#1 164013611#2 137191640#2 -164013605 -164013608#1 -164013608#0 -43062000 53771531 116883176 53896956 56935336 146660067 53896958 112602525#0 112602525#1 112602525#2 165090424 42453343 112602524#1 25096212#0 25096212#1 25096212#2 25096211#0 25096211#1 25096211#2 31898400#0 12543634 145014444#6 145014442 40980378 40980379#0 40980379#2 15239886#1 -15239886#1 134580468#0 134580468#1 134580474"/>
  <route id="route46" edges="23978428#5 23978428#6 -115346438#1 -115346438#0 115346440 9823618#1 9823618#2 149764466 137191639#3 149764465 137191640#0 137191640#1 137191640#2 -164013606 -145018316#3 -145018316#2 -145018316#1 26702701#0 26702701#1 -23729251#0 -145019295#1 -145019295#0"/>
  <route id="route47" edges="15239886#1 -15239886#1 134580468#0 137135364#1 137135361#0 137135361#1 -27625564#1 -27625564#0 27625579 4082401 96017796#0 96017796#1 148365467 145593783 148358570#0 148358570#1 145593784#0 145593784#1 147175290#1 147175293#0 147175293#1 37634056#2 37634056#3 8132446#3 8432342 4868918#0 4868918#1 4868921#0 4868921#1 24971165#0 4018825#7 4018785#0 4018785#1 4018816#0 146536189#1 4494771#1 24972176#2 43015544 43015559"/>
  <route id="route48" edges="60005025#1 43144476 4520061#3 4520040 4520046#0 161068026 4520045#1 4520045#2 4520074 4520082#0 4520082#1 -145019303#1 -145019303#0 145019298 165090435#3 145019295#0 145019295#1 145018316#0 145018316#1 164013613 43061432 -43062000 53771531 116883176 53896956 56935336 146660067 53896958 112602525#0 112602525#1 112602525#2 165090424 42453343 112602524#1 25096212#0 25096212#1 25096212#2 30325860#0 79673984"/>
  <route id="route49" edges="27595967#0 -27595967#0 166532726#0 166532726#1 166532727#3 15239886#1 37063198#0 37063198#1 37063199#0 37063199#1 47034477#0 47034477#1 47034477#2 160615597#0 160615597#1 160615597#2 160615598#0 160615598#1 160615598#2 146379323#1 146379314 146379315#0 38001123#1 42453505#0 42453505#1 -31009602#1 -31009602#0 -165090418 112602523#0 112602523#1 112602523#2 -53896958 7980051 60005026#0 60005026#1 60005026#2 60005026#3 145019295#0 145019295#1 145018316#0 145018316#1 145018316#2 27755546#0 27755546#1 59568103#1 86575270 43144536#0 137191640#1"/>
  <route id="route50" edges="112602528 -112602528 -31898400#2 -31898400#1 12543634 -145014444#5 -145014444#4 -145014444#3 -145014444#2 -145014444#1 -145014444#0 -57742680#7 -57742680#6 -57742680#5 -57742680#4 -57742680#3 23227359 111737367#0 145016429#1 23227363 145018317#0 4520077#0 4520077#1 86059925#0 86059925#1 4520080#2 4520080#0 7980550 24711534 7980544 7980549 120458049 24815726#0 24815726#1 -141634886#2 -141634886#1 143276335#0 136990352 145017162#0 4494794#0 4494794#1 4494801#0"/>
  <route id="route51" edges="7980558#0 7980558#1 7980558#2 7980564 7980566 46273835#0 46273835#1 46273835#3 51855671 51855669#0 32263849#0 32263908 51855669#2 51855669#3 -4857477#1 87605254"/>
  <route id="route52" edges="-24319228#1 37335403#0 37335403#1 5110266#1 37335402#0 37335402#1 37335402#2 37335402#3 -145014444#4 -145014444#3 -145014444#2 -145014444#1 -145014444#0 -57742680#7 -57742680#6 -57742680#5 -57742680#4 -57742680#3 23227359 111737367#0 145016429#1 23227363 145018317#0 145018317#1 165090435#0 165090435#2 165090435#3 -60005026#3 27755975 -27755975"/>
  <route id="route53" edges="164013604 -164013604 -25686851 -164013606 -145018316#3 -145018316#2 -145018316#1 26702701#0 145018315 23729251#2 23729238 -43144507"/>
  <route id="route54" edges="-4868922#0 24971165#0 4018825#7 4018825#8 7980649"/>
  <route id="route55" edges="-115346438#2 -115346438#1 -115346438#0 115346440 9823618#1 9823618#2 149764466 51855670#0 136990483#2 4494794#0 -37338981 164070454 164070453 -10753548 164070441 164070451 4520061#0 4520047#0 4520047#1 4520048#0 4520048#1 4520048#2 4520048#3 4520072#2 4520072#3 4520074 4520075 4520080#1 4520080#2 4520081#0 4520044 27756045 -27755141 120458054 43061150 -43061150"/>
  <route id="route56" edges="54160801 -54160801 7980574#1 56332476 43061999#0 43062000 164013608#0 164013608#1 164013605 58666556 164013611#0 164013611#1 164013611#2 58666557 53771529#0 53771529#1 9823618#0 9823618#1 9823618#2 149764466 4494801#0 4494801#1 4494801#2 139591715 139591716 23981998#0 42359422#2 136990480#3 142655184#0 142655184#1 142655184#2 -142655188 -143117592 -143117590 -46273840 46273840"/>
  <route id="route57" edges="27595967#2 -27595967#2 -27595967#1 -27595967#0 166532726#0 166532726#1 166532727#3 134580468#0 137135364#1 137135361#0 137135361#1 -27625564#1 -27625564#0 27625579 4082401 96017796#0 96017796#1 148365467 145593783 148358570#0 148358570#1 145593784#0 145593784#1 147175290#1 147175293#0 147175293#1 37634056#2 37634056#3 8132446#3 8432342 4868918#0 4868918#1 4868921#0 4868921#1 24971165#0 4018825#7 4018785#0 4018785#1 4018816#0 146536189#1 4494771#1 24972176#2 4494773 4494774#4"/>
  <route id="route58" edges="75902816 164111025 37732651 -4073491 -56910633#2 146379322 146379319#0 146379319#1 146379316 146379314 146379318#0 146379318#1"/>
  <route id="route59" edges="37063198#0 37063198#1 -31898400#2 -31898400#1 12543634 -145014444#5 -145014444#4 -145014444#3 -145014444#2 -145014444#1 -145014444#0 -57742680#7 -57742680#6 -57742680#5 -57742680#4 -57742680#3 23227359 111737367#0 145016429#1 23227363 145018317#0 4520077#0 4520077#1 86059925#0 86059925#1 4520080#2 4520080#0 7980550 24711534 7980544"/>
  <route id="route60" edges="-4073513#1 4073513#1 4073513#2 75902816 164111025 37732653 -31009602#1 -31009602#0 -165090418 112602523#0 112602523#1 112602523#2 -53896958 7980051 60005026#0 60005026#1 60005026#2 60005026#3 145019295#0 145019295#1 23729251#0 23729251#1 23729251#2 23729238 23729243 59568103#0 59568103#1 86575270 4857472#0 4857472#1 164070448#0 164070448#1 164070448#2"/>
  <route id="route61" edges="143276337#0 -143276337#0 -143276335#1 136990352 145017162#0 4494794#0 4494794#1 137191639#3 149764465 137191640#0 137191640#1 137191640#2 -164013605 -164013608#1 -164013608#0 -43062000 53771531 164013609#0 164013609#1 56314378 43061998 164013612 149765129 115676657#0 115676657#1 -89873771 89873766#0 89873766#1 89873766#2 -58666559 164111025 37732653 -42453415 42453414#1 42453519"/>
  <route id="route62" edges="157733238 -157733238 60005026#0 60005026#1 60005026#2 60005026#3 145019295#0 145019295#1 145018316#0 145018316#1 164013613 43061432 -43062000 53771531 116883176 53896956 56935336 146660067 53896958 112602525#0 112602525#1 -64343117 163757294#1 37338857#2 -145016429#3 -145016429#2 145016429#2 145016429#3"/>
  <route id="route63" edges="-4012020#0 164473826#2 164473826#3 164473826#4 164473826#5 32013351 164013607 58666556 164013611#0 164013611#1 164013611#2 58666557 53771529#0 53771529#1 9823618#0 9823618#1 9823618#2 149764466 51855670#0 51855670#2 23978409 51855667#0"/>
  <route id="route64" edges="137134711#0 137134711#1 137134711#2 137134711#3 137191639#0 137191639#2 137191639#3 149764465 137191640#0 137191640#1 137191640#2 -164013605 -164013608#1 -164013608#0 -43062000 53771531 116883176 53896956 56935336 146660067 53896958 112602525#0 112602525#1 112602525#2 165090424 42453343 112602524#1 25096212#0 25096212#1 25096212#2 25096211#0 25096211#1 25096211#2 31898400#0 -97828903"/>
  <route id="route65" edges="47034477#2 160615597#0 160615597#1 160615597#2 160615598#0 160615598#1 160615598#2 146379323#1 146379314 146379315#0 146379315#1 146379315#2 146379315#3 146379324#0 25096212#0 25096212#1 25096212#2 30325860#0 30325860#1 25096222#0"/>
  <route id="route66" edges="142655188 -142655188 -143117592 -143117590 -46273840 115343988 147992849 118990868#1 160582438#0 160582438#1 136990479#0 136990479#1 23978428#1 23978428#2 23978428#3 23978428#4 10569217#0 10569217#1 149764466 137191639#3 149764465 137191640#0 137191640#1 137191640#2 -164013605 -164013608#1 -164013608#0 -43062000 53771531 164013609#0 164013609#1 56314378 43061998 164013612 149765129 115676657#0 115676657#1 -89873771 89873766#0"/>
  <route id="route67" edges="165090435#0 -165090435#0 -145018317#1 -145018317#0 141633906 145019300#0 145019300#1 145019300#2 141633904 134235719#1 4520053 8167122 7980551 24711534 7980544 7980549 120458049 24815726#0 24815726#1 141634886#3 44935827#0 44935827#1 166039362 166039363#1 166039363#2 44935939 165990907#3 4494778 7980543#0 7980543#1 4494779 4494774#3 4494774#4 23084178#0 49357165 -43165905#1 24606659#1 24606659#2 138141252#1 -43160119#0 147175268#1 4868924#0 4868926 4868925#1 4868925#2"/>
  <route id="route68" edges="134235719#0 134235719#1 4520088 -134397031 86059925#1 4520080#2 4520081#0 4520044 27756045 -27755141 27755143 -145019303#0 145019298 165090435#3 145019295#0 145019295#1 145018316#0 145018316#1 164013613 43061432 -43062000 53771531 164013609#0 164013609#1 56314378 43061998 164013612 149765129 115676657#0 115676657#1 -89873771 89873766#0 89873766#1 89873766#2"/>
  <route id="route69" edges="146537834 -15239886#1 134580468#0 137135364#1 137135361#0 137135361#1 137135363 137135362 137135366 137135365 -85847370#1"/>
  <route id="route70" edges="-30656121#1 112358111 37063198#1 -31898400#2 -31898400#1 12543634 -145014444#5 -145014444#4 23227412 5110266#0 5110266#1 4868904#0 4868904#1 27625572#0 27625572#1 27625579 4082401 96017796#0 96017796#1 148365467 145593783 148358570#0 148358570#1 145593784#0 145593784#1 4018815#2 14348297#1 37634056#2 37634056#3 8132446#3 8432342 4868918#0 4868918#1 4868921#0 4868921#1 24971165#0 4018825#7 4018785#0 4018785#1 33439272#0 33439272#1 116051209#0"/>
  <route id="route71" edges="-27625564#0 -27625572#1 -27625572#0 -24319228#1 37335403#0 37335403#1 5110266#1 37335402#0 37335402#1 37335402#2 37335402#3 145014444#5 -12543634 -31898400#0 26613344#0 26613344#1 52783712 47034477#1 47034477#2 160615597#0 160615597#1 160615597#2 160615598#0 160615598#1 160615598#2 -45792298#0 146379317 55283910 142651260"/>
  <route id="route72" edges="-164013614 164013614 27755546#1 59568103#1 86575270 4857472#0 4857472#1 4857472#2 164070445 164070441 164070451 4520061#0 4520047#0 4520047#1 4520048#0 4520048#1 4520048#2 4520049 24815726#1 141634886#3 44935827#0 44935827#1 166039362 166039363#1 166039363#2 44935939 165990907#3 4494778 7980543#0 7980543#1 4494779 4494774#3 4494774#4 23084178#0 23084178#2 166039358 43015940#0 43015940#1 -43165905#1 24606659#1 24606659#2 138141252#1 134407087#6 134407087#7"/>
  <route id="route73" edges="51855669#2 51855669#3 4857479#0 4857479#1 24972176#0 24972176#1 24972176#2 4494773 4494774#4 23084178#0 49357165 -43165905#1 24606659#1 24606659#2 138141252#1 -43160119#0 147175268#1 4018845#0 8132446#0 134408764#2 134408764#3 59429225 134550446 147175289 112610983 147972353 112610981 4868910 96017784 147680936 -27625579 -27625572#1 -27625572#0 -24319228#1 37335403#0 37335403#1"/>
  <route id="route74" edges="-145014439 57742680#2 57742680#3 57742680#4 57742680#5 57742680#6 57742680#7 145014444#0 145014444#1 145014444#2 145014444#3 145014444#4 145014444#5 -12543634 31898400#1 31898400#2 112602528 -112602528"/>
  <route id="route75" edges="10569218#0 10569219 10569217#1 149764466 51855670#0 136990483#2 4494794#0 -37338981 164070454 164070453 -10753548 164070441 164070451 4520061#0 4520047#0 4520047#1 4520048#0 4520048#1 4520048#2 4520048#3 4520072#2 4520072#3 4520074 4520075 4520080#1 4520080#2 4520081#0 4520044 27756045 4520043"/>
  <route id="route76" edges="53771531 164013609#0 164013609#1 56314378 43061997 43061999#0 43062000 164013608#0 164013608#1 164013605 58666556 164013611#0 164013611#1 164013611#2 58666557 53771529#0 53771529#1 9823618#0 9823618#1 9823618#2 149764466 51855670#0 136990483#2 -145017162#0 145017163 -145017163"/>
  <route id="route77" edges="-145014444#2 -145014444#1 -145014444#0 -57742680#7 -57742680#6 -57742680#5 -57742680#4 -57742680#3 23227359 111737367#0 145016429#1 23227363 145018317#0 4520077#0 4520077#1 86059925#0 86059925#1 4520080#2 4520080#0 7980550 24711534 7980544 4520054"/>
  <route id="route78" edges="79673985 25096212#2 23227334#0 111655182 23227347#0 -145016429#4 -145016429#3 -145016429#2 23227363 145018317#0 4520077#0 4520077#1 86059925#0 86059925#1 4520080#2 4520080#0 7980550 24711534 7980544 4520054"/>
  <route id="route79" edges="8432337#1 8432337#0 -8432336 27596085#2 27596085#3 12545997#1 12545997#2 12545997#3 112610981 85847365 4018815#0 147175290#1"/>
  <route id="route80" edges="31898400#0 -31898400#0 26613344#0 26613344#1 52783712 47034477#1 47034477#2 160615597#0 160615597#1 160615597#2 160615598#0 160615598#1 160615598#2 146379323#1 146379314 146379315#0 38001123#1 42453414#0 42453415 -31009602#1 -31009602#0 -165090418 112602523#0 165090427#0 165090443#1 165090427#3 165090425 89873772#1 89873771 115676658 58666560 116883175 4073482"/>