<?xml version="1.0"?>

<!-- generated on Fri Jan 11 15:13:31 2013 by SUMO duarouter Version 0.15.0
<?xml version="1.0" encoding="UTF-8"?>

<configuration xmlns:xsi="http://www.w3.org/2001/XMLSchema-instance" xsi:noNamespaceSchemaLocation="http://sumo.sf.net/xsd/duarouterConfiguration.xsd">

    <input>
        <net-file value="milanPurged.sumo.xml"/>
        <trip-files value="trips.trips.xml"/>
    </input>

    <output>
        <output-file value="milanPurged.routes.xml"/>
    </output>

    <processing>
        <ignore-errors value="true"/>
    </processing>

</configuration>
-->

<routes xmlns:xsi="http://www.w3.org/2001/XMLSchema-instance" xsi:noNamespaceSchemaLocation="http://sumo.sf.net/xsd/routes_file.xsd">
    <vehicle id="trips.trips.xml0" depart="0.00">
        <route edges="4868917 -4868917 37633925 112610979 8132444 148126139 112610981 4868910 96017784 147680936 -27625579"/>
    </vehicle>
    <vehicle id="trips.trips.xml1" depart="1.00">
        <route edges="149768937 137135364#0 137135364#1 40980379#2 15239886#1 37063198#0 37063198#1 37063199#0 37063199#1 47034477#0 47034477#1 47034477#2 160615597#0 160615597#1 160615597#2 160615598#0 160615598#1 160615598#2 146379323#1 146379314 146379315#0 38001123#1 42453505#0 42453505#1 -31009602#1 -31009602#0 -165090418 112602523#0 112602523#1 112602523#2 -53896958 7980051 60005026#0 60005026#1 60005026#2 60005026#3 145019295#0 145019295#1 23729251#0 23729251#1 -23729251#1"/>
    </vehicle>
    <vehicle id="trips.trips.xml2" depart="2.00">
        <route edges="-141634886#3 -141634886#2 -141634886#1 143276335#0 143276335#1 -145017163 145017162#0 4494794#0 4494794#1 51855670#0 51855670#2 23978409 51855667#0 51855667#1 51855667#2 51855667#3 51855667#4 51855667#5 7980566"/>
    </vehicle>
    <vehicle id="trips.trips.xml3" depart="3.00">
        <route edges="143276337#2 4857477#0 4857477#1 137191639#0 137191639#2 137191639#3 149764465 137191640#0 137191640#1 137191640#2 -164013605 -164013608#1 -164013608#0 -43062000 53771531 116883176 53896956 -26612692 37732652 58666563 89873766#1 89873766#2 -58666559 -75902816 -4073513#2 -4073513#1 4877681 31068405#1 -164111020#1 164111029 -164111029"/>
    </vehicle>
    <vehicle id="trips.trips.xml4" depart="4.00">
        <route edges="5110309#1 -5110311#1 -5110311#0 -56349416#1 4868908#0 4868908#1 4868908#2 166532726#0 166532726#1 166532727#3 15239886#1 37063198#0 37063198#1 37063199#0 37063199#1 47034477#0 47034477#1 47034477#2 160615597#0 160615597#1 160615597#2 160615598#0 160615598#1 160615598#2 15243387 55283910 142651260 142651267#0+142653784#0 142651267#2+142653784#2 4073491 75902816 58666559 89873772#0 -165090425 165090431#0"/>
    </vehicle>
    <vehicle id="trips.trips.xml5" depart="5.00">
        <route edges="8311387 43375972#3 43375972#4 43375972#0 4520100 112610993#1 112610993#2 27745290#1 57986382 4683845#0 4683845#1 43165905#1 43015940#2 43015726 43015611#0 43015611#1 23084178#0 23084178#2 27745201 141634886#5 141634886#6 141634886#7 7980547#0 7980547#1 -120458053 7980544 4520054 4520082#0 4520082#1 -145019303#1 -145019303#0 145019298 165090435#3 -60005026#3 -60005026#2"/>
    </vehicle>
    <vehicle id="trips.trips.xml7" depart="7.00">
        <route edges="4018815#2 134408842#1 134408842#2 59429225 134550446 147175289 8132444 148126139 112610981 4868910 96017784 147680936 -27625579 -27625572#1 -27625572#0 -24319228#1 37335403#0 37335403#1 5110266#1 37335402#0 37335402#1 37335402#2 37335402#3 -145014444#4 145014444#4"/>
    </vehicle>
    <vehicle id="trips.trips.xml8" depart="8.00">
        <route edges="164111015 -56910633#0 -31009602#1 -26743565 42453343 112602524#1 25096212#0 25096212#1 25096212#2 23227334#0 23227334#1 23227377 23227390 145014444#1 145014444#2 145014444#3 23227412 5110266#0 5110266#1 4868904#0 4868904#1 27625572#0 27625572#1 27625579 -147680936 -4494327#4 -4494327#2 -4494327#1 4857494"/>
    </vehicle>
    <vehicle id="trips.trips.xml9" depart="9.00">
        <route edges="146537833 37063200#1 112360880 145469493 -10753783#2 138760678 -27595967#2 -27595967#1 -27595967#0 166532726#0 166532726#1 166532727#3 15239886#1 37063198#0 37063198#1 37063199#0 37063199#1 47034477#0 47034477#1 47034477#2 160615597#0 160615597#1 160615597#2 160615598#0 160615598#1 160615598#2 146379323#1 146379314 146379315#0 38001123#1 42453505#0 42453505#1 -31009602#1 -31009602#0 -165090418 112602523#0 112602523#1 112602523#2 -53896958 7980051 60005026#0 60005026#1 60005026#2 60005026#3 145019295#0 145019295#1 145018316#0 145018316#1 145018316#2 27755546#0 -164013614 164013614"/>
    </vehicle>
    <vehicle id="trips.trips.xml10" depart="10.00">
        <route edges="-4520070 4520048#2 4520049 24815726#1 141634886#3 141634886#4 141634886#5 141634886#6 141634886#7 7980547#0 7980547#1 4520055#0 4520055#1"/>
    </vehicle>
    <vehicle id="trips.trips.xml11" depart="11.00">
        <route edges="4018835#0 134552888#1+134552891#1 37669517#1 134408842#0 134408842#1 134408842#2 59429225 134550446 147175289 8132444 148126139 112610981 4868910 96017784 147680936 -27625579 -27625572#1 -27625572#0 -24319228#1 -24319228#0 -4868903 23227427#0 23227427#1 163757282 163757290 163757284 -57742680#6 -57742680#5 -57742680#4 -57742680#3 23227359 111737367#0 112602527#1 112602527#2 112602527#3 146380971 14350356#0 14350356#1 14350356#2 38001044#0 38001123#1 42453505#0 164111015 56910633#1 56910633#2 31068405#0 31068405#1 -164111020#1 -164111020#0 164111019#0 164111019#1 164111019#2 164111019#3 -156996315 -109301504"/>
    </vehicle>
    <vehicle id="trips.trips.xml12" depart="12.00">
        <route edges="-4868922#0 4868922#0 4868922#1 4868925#0 4868925#1 4868925#2 8132446#0 134408764#2 134408764#3 59429225 134550446 147175289 8132444 148126139 112610981 4868910 96017784 147680936 -27625579 -27625572#1 -27625572#0 -24319228#1 -24319228#0 -4868903 23227427#0 23227427#1 163757282 163757290 163757284 57742680#7 145014444#0 145014444#1 145014444#2"/>
    </vehicle>
    <vehicle id="trips.trips.xml13" depart="13.00">
        <route edges="28660860#0 28660860#1 28660860#2 114187491 -57742680#3 23227359 111737367#0 145016429#1 23227363 145018317#0 4520077#0 4520077#1 86059925#0 86059925#1 4520080#2 4520080#0 7980550 24711534 7980544 4520054 -4520074 4520074"/>
    </vehicle>
    <vehicle id="trips.trips.xml14" depart="14.00">
        <route edges="4604990#1 4604988#1 4604992 164013611#2 58666557 53771529#0 53771529#1 9823618#0 9823618#1 9823618#2 149764466 51855670#0 51855670#2 23978409 51855667#0 51855667#1 39267983"/>
    </vehicle>
    <vehicle id="trips.trips.xml15" depart="15.00">
        <route edges="23227375#1 111737367#0 145016429#1 23227363 145018317#0 4520077#0 4520077#1 86059925#0 86059925#1 4520080#2 4520080#0 7980550 24711534 7980544 7980549 120458049 24815726#0 24815726#1 -141634886#2 -141634886#1 165990904 4520047#1 4520068"/>
    </vehicle>
    <vehicle id="trips.trips.xml16" depart="16.00">
        <route edges="4868914 33080415#3 96017805 27625579 4082401 96017796#0 96017796#1 148365467 145593783 148358570#0 148358570#1 145593784#0 145593784#1 147175290#1 147175293#0 147175293#1 37634055#3 134408765 147175285#0 4018845#3 134408177 112610977#0 112610993#1 112610993#2 27745290#1 57986382 4683845#0 4683845#1 43165905#1 43015940#2 43015726 43015611#0 43015611#1 165990917 -165990917"/>
    </vehicle>
    <vehicle id="trips.trips.xml17" depart="17.00">
        <route edges="7980550 24711534 7980544 4520054 4520082#0 4520082#1 -145019303#1 -145019303#0 145019298 165090435#3 145019295#0 145019295#1 145018316#0 145018316#1 164013613 43061432 -43062000 53771531 116883176 53896956 -26612692 37732652 58666563 89873766#1 89873766#2"/>
    </vehicle>
    <vehicle id="trips.trips.xml18" depart="18.00">
        <route edges="43160119#0 134407087#6 134407087#7 134407089#0 27745290#1 57986382 4683845#0 4683845#1 43165905#1 43015940#2 43015726 43015611#0 43015611#1 165990917 165990907#0 44935988 166039363#2 166039363#3 44935513#1 -141634886#1 143276335#0 143276335#1 -145017163 145017162#0 4494794#0 4494794#1 51855670#0 51855670#2 23978409 51855667#0 51855667#1 51855667#2 46273836 46273835#1"/>
    </vehicle>
    <vehicle id="trips.trips.xml19" depart="19.00">
        <route edges="23227359 111737367#0 112602527#1 112602527#2 112602527#3 146380971 25096212#0 25096212#1 -79673985 -79673984 30325860#1 25096222#0"/>
    </vehicle>
    <vehicle id="trips.trips.xml20" depart="20.00">
        <route edges="4494801#0 4494801#1 4494801#2 139591715 115346437#3 115346437#4 136990479#3 136990483#0 137191639#2 137191639#3 149764465 137191640#0 137191640#1 137191640#2 -164013605 -164013608#1 -164013608#0 -43062000 53771531 116883176 53896956 56935336 146660067 53896958 112602525#0 112602525#1 112602525#2 165090424 42453343 112602524#1 14350356#0 146379315#3"/>
    </vehicle>
    <vehicle id="trips.trips.xml21" depart="21.00">
        <route edges="57742680#3 -57742680#3 23227359 111737367#0 145016429#1 23227363 145018317#0 4520077#0 4520077#1 86059925#0 86059925#1"/>
    </vehicle>
    <vehicle id="trips.trips.xml22" depart="22.00">
        <route edges="4868918#0 24606605 24606606#1 24606606#2 4018788#4 4018788#5 28893947#3 147972354 8132444 148126139 112610981 85847365 4018815#0 134553981#1 134550444#2 -142387176 -37634347"/>
    </vehicle>
    <vehicle id="trips.trips.xml23" depart="23.00">
        <route edges="4520077#0 4520077#1 86059925#0 86059925#1 4520080#2 4520080#0 7980550 24711534 120458053 -7980547#1 -7980547#0 -141634886#7 -141634886#6 -141634886#5 -141634886#4 44935827#0 44935827#1 166039362 166039363#1 166039363#2 44935939 165990907#3"/>
    </vehicle>
    <vehicle id="trips.trips.xml24" depart="24.00">
        <route edges="164070448#1 164070448#2 37338981 4494794#1 51855670#0 136990483#2 -145017162#0 145017163 165990906 4494778 7980543#0 7980543#1 4494779 4494774#3 4494774#4 23084178#0 23084178#2 166039358 43015940#0 27745095 43016041#0 146536204#3 134407088#0 138141254#0 134407087#7 134407089#0 134407836#0 134407836#1 112610995 147175273 134408764#0 8132446#0 134408764#2 134408764#3 59429225 134550446 134548710 145593785#0 111767996 4494477#0 4494477#1 4494477#2 4494477#3 4494477#4 144795651 59242849 4857499#0 5110309#0 5110309#1 -5110311#1 102464581"/>
    </vehicle>
    <vehicle id="trips.trips.xml25" depart="25.00">
        <route edges="4045620#1 118990868#1 160582438#0 160582438#1 136990479#0 136990479#1 136990479#2 136990479#3 136990483#0 136990483#2 -145017162#0 145017163 165990906 4494778 7980543#0 7980543#1 4494779 4494774#3 4494774#4 23084178#0 23084178#2 166039358 43015940#0 27745095 43016041#0 146536204#3 134407088#0 138141254#0 134407087#7 134407089#0 134407836#0 134407836#1 112610995 147175273 134408764#0 8132446#0 134408764#2 134408764#3 59429225 134550446 147175289 8132444 148126139 112610981 4868910 96017784 147680936 -27625579 -27625572#1 -27625572#0 -24319228#1 24319228#1"/>
    </vehicle>
    <vehicle id="trips.trips.xml26" depart="26.00">
        <route edges="21628608 10569217#0 10569217#1 149764466 137191639#3 149764465 137191640#0 137191640#1 137191640#2 -164013605 -164013608#1 -164013608#0 -43062000 53771531 116883176 53896956 -26612692 37732652 58666563 89873766#1 165090431#0 165090439"/>
    </vehicle>
    <vehicle id="trips.trips.xml27" depart="27.00">
        <route edges="-31898400#0 31898400#0 12543634 -145014444#5 -145014444#4 -145014444#3 -145014444#2 -145014444#1 -145014444#0 -57742680#7 -57742680#6 -57742680#5 -57742680#4 -57742680#3 23227359 111737367#0 145016429#1 23227363 145018317#0 145018317#1 165090435#0 165090435#2 165090435#3 145019295#0 145019295#1 23729251#0 23729251#1 23729251#2 23729238 -43144507"/>
    </vehicle>
    <vehicle id="trips.trips.xml28" depart="28.00">
        <route edges="26612919 -58666560 115676657#0 115676655 26612692 56935336 146660067 53896958 112602525#0 112602525#1 112602525#2 165090424 42453343 112602524#1 25096212#0 25096212#1 25096212#2 25096211#0 25096211#1 25096211#2 31898400#0 12543634 145014444#6 145014442 40980378 40980379#0 40980379#2 12543638 162729496 146537835"/>
    </vehicle>
    <vehicle id="trips.trips.xml29" depart="29.00">
        <route edges="27756067#0 27756067#1 4520046#2 4520071 4520069 4520048#1 4520048#2 4520049 24815726#1 -141634886#2 -141634886#1 143276335#0 143276335#1 143276337#0 143276337#2 4857477#0 4857477#1 4857479#0 4857479#1 4857479#2 4857479#3 4018851#0 4018851#1 4018851#2"/>
    </vehicle>
    <vehicle id="trips.trips.xml30" depart="30.00">
        <route edges="56935336 146660067 53896958 112602525#0 112602525#1 112602525#2 165090424 42453343 112602524#1 25096212#0 25096212#1 25096212#2 25096211#0 25096211#1 25096211#2 31898400#0 12543634 145014444#6 145014442 40980378 40980379#0 137135361#0 4868905#3 41773063 4868908#1 4868908#2 27595967#0"/>
    </vehicle>
    <vehicle id="trips.trips.xml31" depart="31.00">
        <route edges="57742680#2 23227359 111737367#0 145016429#1 23227363 145018317#0 4520077#0 4520077#1 86059925#0 86059925#1 4520080#2 4520080#0 7980550 24711534 7980544 7980549 120458049 24815726#0 24815726#1 141634886#3"/>
    </vehicle>
    <vehicle id="trips.trips.xml32" depart="32.00">
        <route edges="24712098#0 24712098#1 24712098#2 4858691#3 4858691#4 24712056 32780254#0 4018788#3 4018788#4 4018788#5 28893947#3 147972354 8132444 148126139 112610981 4868910 96017784 147680936 -27625579 -27625572#1 -27625572#0 -24319228#1 -24319228#0 -4868903 23227427#0 23227427#1 163757282 163757290 163757284 -57742680#6 -57742680#5 -57742680#4 -57742680#3 23227359 111737367#0 112602527#1 112602527#2 112602527#3 146380971 112602522#1 112602522#2 -42453343 26743565 -31009602#0 -165090418 112602523#0 112602523#1"/>
    </vehicle>
    <vehicle id="trips.trips.xml33" depart="33.00">
        <route edges="147972353 112610981 4868910 96017784 147680936 -27625579 -27625572#1 -27625572#0 -24319228#1 -24319228#0 -4868903 23227427#0 23227427#1 163757282 163757290 163757284 -57742680#6 -57742680#5 -57742680#4 -57742680#3 23227359 111737367#0 145016429#1 23227363 145018317#0 145018317#1 165090435#0 165090435#2 165090435#3 145019295#0 145019295#1 23729251#0 23729251#1 23729251#2 60005025#0"/>
    </vehicle>
    <vehicle id="trips.trips.xml34" depart="34.00">
        <route edges="166532727#2 166532727#3 15239886#1 37063198#0 37063198#1 -31898400#2 -31898400#1 12543634 -145014444#5 -145014444#4 -145014444#3 -145014444#2 -145014444#1 -145014444#0 -57742680#7 -57742680#6 -57742680#5 -57742680#4 -57742680#3 23227359 111737367#0 145016429#1 23227363 145018317#0 4520077#0 4520077#1 86059925#0 86059925#1 4520080#2 4520080#0 7980550 24711534 7980544 7980549 120458049 24815726#0 24815726#1 -141634886#2 -141634886#1"/>
    </vehicle>
    <vehicle id="trips.trips.xml35" depart="35.00">
        <route edges="-4868922#1 4868922#1 4868925#0 4868925#1 4868925#2 8132446#0 134408764#2 134408764#3 59429225 134550446 147175289 8132444 148126139 112610981 85847365 4018815#0 4018815#2 4018835#0"/>
    </vehicle>
    <vehicle id="trips.trips.xml36" depart="36.00">
        <route edges="32263849#2 23982227 46273835#0 46273835#1 46273835#3 23978410#0 23978410#1 136990483#0 136990483#2 -145017162#0 145017163 -143276335#1 -143276335#0 141634886#1 141634886#2 141634886#3 141634886#4 141634886#5 141634886#6 141634886#7 141634886#8 141634886#9 141634886#10 134235719#0 134235719#1 141633903 145019300#2 141633904"/>
    </vehicle>
    <vehicle id="trips.trips.xml37" depart="37.00">
        <route edges="26613344#0 26613344#1 163757305#0 23330531#0 137134712 149768937 137135364#0 137135364#1 137135361#0 137135361#1 137135363 137135362 137135366 137135365 137134716#0 137134716#1 4018788#4 4018788#5"/>
    </vehicle>
    <vehicle id="trips.trips.xml38" depart="38.00">
        <route edges="139591716 23978428#2 115346437#1 115346437#3 115346437#4 136990479#3 136990483#0 136990483#2 -145017162#0 145017163 165990906 4494778 7980543#0 7980543#1 4494779 4494774#3 4494774#4 23084178#0 23084178#2 166039358 43015940#0 27745095 43016041#0 146536204#3 134407088#0 138141254#0 134407087#7 134407089#0 134407836#0 134407836#1 112610995 147175273 134408764#0 8132446#0 134408764#2 134408764#3 59429225 134550446 147175289 8132444 148126139 112610981 4868910 96017784 147680936 -27625579 27625564#0 27625564#1 56349416#0 4868908#0 4868908#1"/>
    </vehicle>
    <vehicle id="trips.trips.xml39" depart="39.00">
        <route edges="-53896956 53896956 56935336 146660067 53896958 112602525#0 165090432#0 165090432#1 165090432#2 -145018317#1 -145018317#0 141633906 145019300#0 145019300#1 145019300#2 145019300#3"/>
    </vehicle>
    <vehicle id="trips.trips.xml40" depart="40.00">
        <route edges="4520095#1 43375972#4 43375972#0 43375972#1 8311371 147175277#0 147175277#1 147175285#0 4018845#3 4018845#7 4868924#0 4868926 4868925#1 4868927 4868920 4868921#1"/>
    </vehicle>
    <vehicle id="trips.trips.xml41" depart="41.00">
        <route edges="-145014444#5 -145014444#4 23227412 5110266#0 5110266#1 4868904#0 4868904#1 27625572#0 27625572#1 27625579 4082401 96017796#0 96017796#1 148365467 145593783 148358570#0 148358570#1"/>
    </vehicle>
    <vehicle id="trips.trips.xml42" depart="42.00">
        <route edges="24712056 32780254#0 137134716#3 137134716#4 137134716#5 137134710#0 137134710#1 137134710#2 137134710#3 137134711#0 137134711#1 137134711#2 137134711#3 137191639#0 137191639#2 137191639#3 149764465 137191640#0 137191640#1 137191640#2 -164013607 -32013351 164473826#6 164473826#7 164473826#0 164473826#1 4012020#0 -4011920#3"/>
    </vehicle>
    <vehicle id="trips.trips.xml43" depart="43.00">
        <route edges="-23331418#0 146379319#1 146379316 146379314 146379315#0 146379315#1 -14350356#1 146379315#3 146379324#0 25096212#0 25096212#1 25096212#2 25096211#0 25096211#1 25096211#2 31898400#0 31898400#1 31898400#2 -31898400#2"/>
    </vehicle>
    <vehicle id="trips.trips.xml44" depart="44.00">
        <route edges="4494801#0 4494801#1 4494801#2 139591715 115346437#3 115346437#4 136990479#3 136990483#0 137191639#2 137191639#3 149764465 137191640#0 137191640#1 137191640#2 -164013605 -164013608#1 4519612#0 4519603#2 -4519603#2"/>
    </vehicle>
    <vehicle id="trips.trips.xml45" depart="45.00">
        <route edges="4604996 4604994 164013611#1 164013611#2 137191640#2 -164013605 -164013608#1 -164013608#0 -43062000 53771531 116883176 53896956 56935336 146660067 53896958 112602525#0 112602525#1 112602525#2 165090424 42453343 112602524#1 25096212#0 25096212#1 25096212#2 25096211#0 25096211#1 25096211#2 31898400#0 12543634 145014444#6 145014442 40980378 40980379#0 40980379#2 15239886#1 -15239886#1 134580468#0 134580468#1 134580474"/>
    </vehicle>
    <vehicle id="trips.trips.xml46" depart="46.00">
        <route edges="23978428#5 23978428#6 -115346438#1 -115346438#0 115346440 9823618#1 9823618#2 149764466 137191639#3 149764465 137191640#0 137191640#1 137191640#2 -164013606 -145018316#3 -145018316#2 -145018316#1 26702701#0 26702701#1 26702701#2 -145019295#0"/>
    </vehicle>
    <vehicle id="trips.trips.xml47" depart="47.00">
        <route edges="15239886#1 -15239886#1 134580468#0 137135364#1 137135361#0 137135361#1 -27625564#1 -27625564#0 27625579 4082401 96017796#0 96017796#1 148365467 145593783 148358570#0 148358570#1 145593784#0 145593784#1 147175290#1 147175293#0 147175293#1 37634055#3 134408765 147175285#0 4018845#3 134408177 112610977#0 112610993#1 112610993#2 27745290#1 57986382 4683845#0 4683845#1 43165905#1 43015940#2 43015726 43015611#0 43015611#1 -165990915 4494774#2 4494774#3 -4494773 43015544 43015559"/>
    </vehicle>
    <vehicle id="trips.trips.xml48" depart="48.00">
        <route edges="60005025#1 43144476 4520061#3 4520040 4520046#0 4520046#1 -27756067#1 -27756067#0 4520045#2 4520074 4520082#0 4520082#1 -145019303#1 -145019303#0 145019298 165090435#3 145019295#0 145019295#1 145018316#0 145018316#1 164013613 43061432 -43062000 53771531 116883176 53896956 56935336 146660067 53896958 112602525#0 112602525#1 112602525#2 165090424 42453343 112602524#1 25096212#0 25096212#1 -79673985 -79673984 79673984"/>
    </vehicle>
    <vehicle id="trips.trips.xml49" depart="49.00">
        <route edges="27595967#0 -27595967#0 166532726#0 166532726#1 166532727#3 15239886#1 37063198#0 37063198#1 37063199#0 37063199#1 47034477#0 47034477#1 47034477#2 160615597#0 160615597#1 160615597#2 160615598#0 160615598#1 160615598#2 146379323#1 146379314 146379315#0 38001123#1 42453505#0 42453505#1 -31009602#1 -31009602#0 -165090418 112602523#0 112602523#1 112602523#2 -53896958 7980051 60005026#0 60005026#1 60005026#2 60005026#3 145019295#0 145019295#1 23729251#0 23729251#1 23729251#2 23729238 23729243 59568103#0 59568103#1 86575270 43144536#0 137191640#1"/>
    </vehicle>
    <vehicle id="trips.trips.xml50" depart="50.00">
        <route edges="112602528 -112602528 -31898400#2 -31898400#1 12543634 -145014444#5 -145014444#4 -145014444#3 -145014444#2 -145014444#1 -145014444#0 -57742680#7 -57742680#6 -57742680#5 -57742680#4 -57742680#3 23227359 111737367#0 145016429#1 23227363 145018317#0 4520077#0 4520077#1 86059925#0 86059925#1 4520080#2 4520080#0 7980550 24711534 7980544 7980549 120458049 24815726#0 24815726#1 -141634886#2 -141634886#1 143276335#0 143276335#1 -145017163 145017162#0 4494794#0 4494794#1 4494801#0"/>
    </vehicle>
    <vehicle id="trips.trips.xml51" depart="51.00">
        <route edges="7980558#0 7980558#1 7980558#2 7980564 7980566 46273835#0 46273835#1 46273835#3 51855671 51855669#0 51855669#1 51855669#2 51855669#3 -4857477#1 87605254"/>
    </vehicle>
    <vehicle id="trips.trips.xml52" depart="52.00">
        <route edges="-24319228#1 -24319228#0 -4868903 23227427#0 23227427#1 163757282 163757290 163757284 -57742680#6 -57742680#5 -57742680#4 -57742680#3 23227359 111737367#0 145016429#1 23227363 145018317#0 145018317#1 165090435#0 165090435#2 165090435#3 -60005026#3 27755975 -27755975"/>
    </vehicle>
    <vehicle id="trips.trips.xml53" depart="53.00">
        <route edges="164013604 -164013604 -25686851 -164013606 -145018316#3 -145018316#2 -145018316#1 26702701#0 145018315 23729251#2 23729238 -43144507"/>
    </vehicle>
    <vehicle id="trips.trips.xml54" depart="54.00">
        <route edges="-4868922#0 24971165#0 4018825#7 4018825#8 7980649"/>
    </vehicle>
    <vehicle id="trips.trips.xml55" depart="55.00">
        <route edges="-115346438#2 -115346438#1 -115346438#0 115346440 9823618#1 9823618#2 149764466 51855670#0 136990483#2 4494794#0 -37338981 164070454 164070453 -10753548 164070441 164070451 4520061#0 4520047#0 4520047#1 4520048#0 4520048#1 4520048#2 4520048#3 4520072#2 4520072#3 4520074 4520082#0 4520082#1 -145019303#1 -145019303#0 145019298 -165090435#2 43061150 -43061150"/>
    </vehicle>
    <vehicle id="trips.trips.xml56" depart="56.00">
        <route edges="54160801 -54160801 7980574#1 56332476 43061999#0 43062000 164013608#0 164013608#1 164013605 58666556 164013611#0 164013611#1 164013611#2 58666557 53771529#0 53771529#1 9823618#0 9823618#1 9823618#2 149764466 51855670#0 136990481#2 136990480#0 136990480#1 136990480#2 136990480#3 142655184#0 142655184#1 142655184#2 -142655188 -143117592 -143117590 -46273840 46273840"/>
    </vehicle>
    <vehicle id="trips.trips.xml57" depart="57.00">
        <route edges="27595967#2 -27595967#2 -27595967#1 -27595967#0 166532726#0 166532726#1 166532727#3 134580468#0 137135364#1 137135361#0 137135361#1 -27625564#1 -27625564#0 27625579 4082401 96017796#0 96017796#1 148365467 145593783 148358570#0 148358570#1 145593784#0 145593784#1 147175290#1 147175293#0 147175293#1 37634055#3 134408765 147175285#0 4018845#3 134408177 112610977#0 112610993#1 112610993#2 27745290#1 57986382 4683845#0 4683845#1 43165905#1 43015940#2 43015726 43015611#0 43015611#1 -165990915 4494774#2 4494774#3 4494774#4"/>
    </vehicle>
    <vehicle id="trips.trips.xml58" depart="58.00">
        <route edges="75902816 164111025 37732653 56910633#0 56910633#1 146379322 146379319#0 146379319#1 146379316 146379314 146379318#0 146379318#1"/>
    </vehicle>
    <vehicle id="trips.trips.xml59" depart="59.00">
        <route edges="37063198#0 37063198#1 -31898400#2 -31898400#1 12543634 -145014444#5 -145014444#4 -145014444#3 -145014444#2 -145014444#1 -145014444#0 -57742680#7 -57742680#6 -57742680#5 -57742680#4 -57742680#3 23227359 111737367#0 145016429#1 23227363 145018317#0 4520077#0 4520077#1 86059925#0 86059925#1 4520080#2 4520080#0 7980550 24711534 7980544"/>
    </vehicle>
    <vehicle id="trips.trips.xml60" depart="60.00">
        <route edges="-4073513#1 4073513#1 4073513#2 75902816 58666559 89873772#0 -165090425 165090431#0 165090426#1 112602523#2 -53896958 7980051 60005026#0 60005026#1 60005026#2 60005026#3 145019295#0 145019295#1 23729251#0 23729251#1 23729251#2 60005025#0 60005025#1 165990908 23729246 165990905#1 164070447 10753548 37338980 164070448#1 164070448#2"/>
    </vehicle>
    <vehicle id="trips.trips.xml61" depart="61.00">
        <route edges="143276337#0 -143276337#0 -143276335#1 -143276335#0 165990904 4520047#1 4520048#0 4520048#1 4520048#2 4520048#3 4520072#2 4520072#3 4520074 4520082#0 4520082#1 -145019303#1 -145019303#0 145019298 165090435#3 145019295#0 145019295#1 145018316#0 145018316#1 164013613 43061432 -43062000 53771531 116883176 53896956 56935336 146660067 53896958 112602525#0 112602525#1 112602525#2 165090424 26743565 31009602#1 -42453415 42453414#1 42453519"/>
    </vehicle>
    <vehicle id="trips.trips.xml62" depart="62.00">
        <route edges="157733238 -157733238 60005026#0 60005026#1 60005026#2 60005026#3 145019295#0 145019295#1 145018316#0 145018316#1 164013613 43061432 -43062000 53771531 116883176 53896956 56935336 146660067 53896958 112602525#0 112602525#1 -64343117 163757294#1 37338857#2 -145016429#3 -145016429#2 -145016429#1 112602527#1 145016429#3"/>
    </vehicle>
    <vehicle id="trips.trips.xml64" depart="64.00">
        <route edges="-4012020#0 164473826#2 164473826#3 164473826#4 164473826#5 32013351 164013607 58666556 164013611#0 164013611#1 164013611#2 58666557 53771529#0 53771529#1 9823618#0 9823618#1 9823618#2 149764466 51855670#0 51855670#2 23978409 51855667#0"/>
    </vehicle>
    <vehicle id="trips.trips.xml65" depart="65.00">
        <route edges="137134711#0 4857479#3 4018851#0 164247789#2 164247789#3 164247789#4 146536191 146536204#0 146536204#2 146536204#3 134407088#0 138141254#0 134407087#7 134407089#0 134407836#0 134407836#1 112610995 147175273 134408764#0 8132446#0 134408764#2 134408764#3 59429225 134550446 147175289 8132444 148126139 112610981 4868910 96017784 147680936 -27625579 -27625572#1 -27625572#0 -24319228#1 37335403#0 37335403#1 5110266#1 37335402#0 37335402#1 37335402#2 37335402#3 145014444#5 -12543634 -97828903"/>
    </vehicle>
    <vehicle id="trips.trips.xml66" depart="66.00">
        <route edges="47034477#2 160615597#0 160615597#1 160615597#2 160615598#0 160615598#1 160615598#2 146379323#1 146379314 146379315#0 146379315#1 -14350356#1 146379315#3 146379324#0 25096212#0 25096212#1 -79673985 -79673984 30325860#1 25096222#0"/>
    </vehicle>
    <vehicle id="trips.trips.xml67" depart="67.00">
        <route edges="142655188 -142655188 -147992852 -46273839 147992849 118990868#1 160582438#0 160582438#1 136990479#0 136990479#1 136990479#2 136990479#3 136990483#0 137191639#2 137191639#3 149764465 137191640#0 137191640#1 137191640#2 -164013605 -164013608#1 -164013608#0 -43062000 53771531 164013609#0 164013609#1 56314378 43061998 164013612 149765129 115676657#0 115676657#1 -89873771 89873766#0"/>
    </vehicle>
    <vehicle id="trips.trips.xml68" depart="68.00">
        <route edges="165090435#0 165090435#2 165090435#3 4520083 145019303#0 145019303#1 4520045#0 4520045#1 27756067#0 27756067#1 4520046#2 4520071 4520069 4520048#1 4520048#2 4520049 24815726#1 -141634886#2 -141634886#1 143276335#0 143276335#1 165990906 4494778 7980543#0 7980543#1 4494779 4494774#3 4494774#4 23084178#0 23084178#2 166039358 43015940#0 27745095 43016041#0 146536204#3 134407088#0 138141254#0 134407087#7 134407089#0 134407836#0 134407836#1 112610995 147175273 4018845#7 4868924#0 4868926 4868925#1 4868925#2"/>
    </vehicle>
    <vehicle id="trips.trips.xml69" depart="69.00">
        <route edges="134235719#0 134235719#1 4520088 -134397031 86059925#1 4520080#2 4520081#0 4520081#1 4520082#1 -145019303#1 -145019303#0 145019298 165090435#3 145019295#0 145019295#1 145018316#0 145018316#1 164013613 43061432 -43062000 53771531 116883176 53896956 -26612692 37732652 58666563 89873766#1 89873766#2"/>
    </vehicle>
    <vehicle id="trips.trips.xml70" depart="70.00">
        <route edges="146537834 -15239886#1 134580468#0 137135364#1 137135361#0 137135361#1 137135363 137135362 137135366 137135365 -85847370#1"/>
    </vehicle>
    <vehicle id="trips.trips.xml71" depart="71.00">
        <route edges="-30656121#1 30656121#1 146537834 -15239886#1 134580468#0 137135364#1 137135361#0 137135361#1 -27625564#1 -27625564#0 27625579 4082401 96017796#0 96017796#1 148365467 145593783 148358570#0 148358570#1 145593784#0 145593784#1 147175290#1 147175293#0 147175293#1 37634055#3 134408765 147175285#0 4018845#3 4018845#7 4868924#0 4868924#1 -4868922#1 -4868922#0 24971165#0 4018825#7 4018785#0 4018785#1 33439272#0 33439272#1 116051209#0"/>
    </vehicle>
    <vehicle id="trips.trips.xml72" depart="72.00">
        <route edges="-27625564#0 -27625572#1 -27625572#0 -24319228#1 -24319228#0 -4868903 23227427#0 23227427#1 163757282 163757290 163757284 -57742680#6 -57742680#5 -57742680#4 -57742680#3 23227359 111737367#0 112602527#1 112602527#2 112602527#3 146380971 14350356#0 14350356#1 14350356#2 38001044#0 38001044#1 146379318#0 146379318#1 146379317 55283910 142651260"/>
    </vehicle>
    <vehicle id="trips.trips.xml73" depart="73.00">