<?xml version="1.0"?>
<!-- generated on 2012-11-12 13:15:01.766608 by $Id: randomTrips.py 11671 2012-01-07 20:14:30Z behrisch $ -->
<trips>
    <trip id="t0" depart="0" from="156996312#0" to="-112610976" />
    <trip id="t1" depart="1" from="116044569#1" to="-4073450" />
    <trip id="t2" depart="2" from="164111020#2" to="35361611" />
    <trip id="t3" depart="3" from="42359618#2" to="118373950" />
    <trip id="t4" depart="4" from="-165090418" to="134235048#5" />
    <trip id="t5" depart="5" from="166532726#1" to="23227375#1" />
    <trip id="t6" depart="6" from="27626473#0" to="160615595" />
    <trip id="t7" depart="7" from="57742680#5" to="32780451" />
    <trip id="t8" depart="8" from="58666560#1" to="-142387172#1" />
    <trip id="t9" depart="9" from="62091790#12" to="7980558#2" />
    <trip id="t10" depart="10" from="-32013384#1" to="166532727#1" />
    <trip id="t11" depart="11" from="134552888#1" to="52788949" />
    <trip id="t12" depart="12" from="10517356" to="97828903" />
    <trip id="t13" depart="13" from="-23084079#0" to="27626059#1" />
    <trip id="t14" depart="14" from="40980377" to="12543636#0" />
    <trip id="t15" depart="15" from="37634055#0" to="4018816#1" />
    <trip id="t16" depart="16" from="145019295#0" to="56910633#0" />
    <trip id="t17" depart="17" from="22811692#1" to="-52783712" />
    <trip id="t18" depart="18" from="23982227" to="32780257" />
    <trip id="t19" depart="19" from="45178853" to="-164204874#2" />
    <trip id="t20" depart="20" from="-57744803" to="42453108" />
    <trip id="t21" depart="21" from="-115896294#2" to="24971163#2" />
    <trip id="t22" depart="22" from="134769351#1" to="79673984" />
    <trip id="t23" depart="23" from="35875010#2" to="-53264702#6" />
    <trip id="t24" depart="24" from="-27626473#0" to="4520082#1" />
    <trip id="t25" depart="25" from="134641552" to="134765991#1" />
    <trip id="t26" depart="26" from="-139160778#1" to="-139160778#1" />
    <trip id="t27" depart="27" from="-14350228#2" to="38001045#1" />
    <trip id="t28" depart="28" from="147175290#0" to="-37335880" />
    <trip id="t29" depart="29" from="-115896301" to="-145017163#1" />
    <trip id="t30" depart="30" from="57742685" to="23276697#0" />
    <trip id="t31" depart="31" from="27595967#2" to="62091790#10" />
    <trip id="t32" depart="32" from="27745990#1" to="-52783712" />
    <trip id="t33" depart="33" from="-23331418#3" to="112602522#4" />
    <trip id="t34" depart="34" from="34411512#1" to="4018788#3" />
    <trip id="t35" depart="35" from="145012912#2" to="146379324#3" />
    <trip id="t36" depart="36" from="37338980" to="-141634886#7" />
    <trip id="t37" depart="37" from="-5110311#1" to="80861388#0" />
    <trip id="t38" depart="38" from="-5110311#0" to="-26743563#0" />
    <trip id="t39" depart="39" from="-121498330" to="-166696470#2" />
    <trip id="t40" depart="40" from="-23227404#0" to="37634055#3" />
    <trip id="t41" depart="41" from="43375972#4" to="24971163#0" />
    <trip id="t42" depart="42" from="43015940#1" to="145012681#2" />
    <trip id="t43" depart="43" from="164111029#1" to="43915843" />
    <trip id="t44" depart="44" from="134651152#1" to="-37337308#0" />
    <trip id="t45" depart="45" from="-115896312" to="62091790#5" />
    <trip id="t46" depart="46" from="-143274294#0" to="23227456" />
    <trip id="t47" depart="47" from="134408764#1" to="-140773469" />
    <trip id="t48" depart="48" from="24606605" to="137134713#1" />
    <trip id="t49" depart="49" from="164111015" to="-117085882" />
    <trip id="t50" depart="50" from="4494801#0" to="26743563#2" />
    <trip id="t51" depart="51" from="-37733497#2" to="-54160801#0" />
    <trip id="t52" depart="52" from="112602522#3" to="-37634347" />
    <trip id="t53" depart="53" from="-4494327#3" to="-30704082#1" />
    <trip id="t54" depart="54" from="146379326#2" to="145018316#3" />
    <trip id="t55" depart="55" from="-120363505#4" to="-62091790#1" />
    <trip id="t56" depart="56" from="-24606622#1" to="-145016432#0" />
    <trip id="t57" depart="57" from="163757325#2" to="-50845219#1" />
    <trip id="t58" depart="58" from="134765994#0" to="116016603#0" />
    <trip id="t59" depart="59" from="134235049#0" to="23227281#0" />
    <trip id="t60" depart="60" from="134580468#0" to="-116044569#1" />
    <trip id="t61" depart="61" from="4018810#0" to="-164473828" />
    <trip id="t62" depart="62" from="166039363#2" to="83605155#0" />
    <trip id="t63" depart="63" from="137134716#6" to="49357260" />
    <trip id="t64" depart="64" from="-145018317#0" to="-53264702#5" />
    <trip id="t65" depart="65" from="8311398" to="115896294#4" />
    <trip id="t66" depart="66" from="32780443#1" to="24971165#1" />
    <trip id="t67" depart="67" from="53264702#4" to="-27625564#3" />
    <trip id="t68" depart="68" from="115908912#2" to="-35875008#1" />
    <trip id="t69" depart="69" from="-43375365" to="-4877646#1" />
    <trip id="t70" depart="70" from="112602527#1" to="165090443#0" />
    <trip id="t71" depart="71" from="146379326#1" to="4520083#1" />
    <trip id="t72" depart="72" from="-120458056" to="-5110275" />
    <trip id="t73" depart="73" from="120458050" to="-27638652#0" />
    <trip id="t74" depart="74" from="137135361#0" to="-44148009#0" />
    <trip id="t75" depart="75" from="8132446#6" to="-164111032" />
    <trip id="t76" depart="76" from="141634886#13" to="145016432#2" />
    <trip id="t77" depart="77" from="24606606#1" to="45178844" />
    <trip id="t78" depart="78" from="-23889203#0+40012050#1" to="23330531#0" />
    <trip id="t79" depart="79" from="4692476#1" to="165419179" />
    <trip id="t80" depart="80" from="112068183#0" to="57744803" />
    <trip id="t81" depart="81" from="62091785#0" to="145017162#0" />
    <trip id="t82" depart="82" from="134651153#0" to="47076817" />
    <trip id="t83" depart="83" from="-53264702#0" to="145016432#5" />
    <trip id="t84" depart="84" from="27638652#3" to="143279607" />
    <trip id="t85" depart="85" from="-115896303#1" to="-4073513#1" />
    <trip id="t86" depart="86" from="146379318#3" to="53869265#0" />
    <trip id="t87" depart="87" from="10516168" to="-164013605" />
    <trip id="t88" depart="88" from="23978410#1" to="164111020#2" />
    <trip id="t89" depart="89" from="145016432#7" to="160615603" />
    <trip id="t90" depart="90" from="4868911" to="8432336" />
    <trip id="t91" depart="91" from="61684953" to="50845219#1" />
    <trip id="t92" depart="92" from="-52018667" to="115912118#1" />
    <trip id="t93" depart="93" from="50845226#2" to="54643434#2" />
    <trip id="t94" depart="94" from="-145018316#2" to="-43144507#1" />
    <trip id="t95" depart="95" from="-164111017#0" to="141633905#8" />
    <trip id="t96" depart="96" from="-4494327#2" to="-54160801#1" />
    <trip id="t97" depart="97" from="112060320#1" to="-53141914#1" />
    <trip id="t98" depart="98" from="-145016432#7" to="134407834#2" />
    <trip id="t99" depart="99" from="147992852" to="28893947#1" />
    <trip id="t100" depart="100" from="-144412228" to="-4520087" />
    <trip id="t101" depart="101" from="134765991#3" to="4519672" />
    <trip id="t102" depart="102" from="-4012020#0" to="111459945#0" />
    <trip id="t103" depart="103" from="138141246" to="-44148008" />
    <trip id="t104" depart="104" from="164070448#1" to="137134716#1" />
    <trip id="t105" depart="105" from="50845220#1" to="116044569#0" />
    <trip id="t106" depart="106" from="32013384#2" to="-5110277#0" />
    <trip id="t107" depart="107" from="-30704082#0" to="-26743563#3" />
    <trip id="t108" depart="108" from="-32780257" to="134552889" />
    <trip id="t109" depart="109" from="34411514#1" to="44935827#2" />
    <trip id="t110" depart="110" from="-53264702#2" to="115343988" />
    <trip id="t111" depart="111" from="-10753783#4" to="4494771#1" />
    <trip id="t112" depart="112" from="134651161#0" to="43165905#0" />
    <trip id="t113" depart="113" from="24355460#2" to="-120363505#1" />
    <trip id="t114" depart="114" from="49357165#0" to="64343117" />
    <trip id="t115" depart="115" from="152008942" to="24606622#0" />
    <trip id="t116" depart="116" from="138141247#1" to="58666560#1" />
    <trip id="t117" depart="117" from="141634886#11" to="-37733505#1" />
    <trip id="t118" depart="118" from="-43015436#0" to="28660860#1" />
    <trip id="t119" depart="119" from="25816209#1" to="-115346438#0" />
    <trip id="t120" depart="120" from="145016429#0" to="32780444" />
    <trip id="t121" depart="121" from="134651152#2" to="-60005026#3" />
    <trip id="t122" depart="122" from="25096211#1" to="96128626" />
    <trip id="t123" depart="123" from="-115908912#0" to="-164204874#0" />
    <trip id="t124" depart="124" from="134397031" to="160615597#1" />
    <trip id="t125" depart="125" from="27625564#1" to="134408764#2" />
    <trip id="t126" depart="126" from="42453459#0" to="136990481#2" />
    <trip id="t127" depart="127" from="-53264713" to="4520046#1" />
    <trip id="t128" depart="128" from="120458051#0" to="-142492944" />
    <trip id="t129" depart="129" from="50845226#1" to="4494794#3" />
    <trip id="t130" depart="130" from="136990480#2" to="4011920#2" />
    <trip id="t131" depart="131" from="-143276337#1" to="-111768000#1" />
    <trip id="t132" depart="132" from="37335403#1" to="112610977#2" />
    <trip id="t133" depart="133" from="134397743#0" to="4494327#1" />
    <trip id="t134" depart="134" from="23331620#0" to="35361323#1" />
    <trip id="t135" depart="135" from="44935513#2" to="137955421" />
    <trip id="t136" depart="136" from="43325364#0" to="-30704082#1" />
    <trip id="t137" depart="137" from="146379315#4" to="134580469#4" />
    <trip id="t138" depart="138" from="-4520070" to="75902816#0" />
    <trip id="t139" depart="139" from="53141866#1" to="116883181" />
    <trip id="t140" depart="140" from="134397743#0" to="141633905#3" />
    <trip id="t141" depart="141" from="163757303#1" to="-165419179" />
    <trip id="t142" depart="142" from="165090443#1" to="27638651#1" />
    <trip id="t143" depart="143" from="23227412#0" to="30704082#3" />
    <trip id="t144" depart="144" from="134407087#4" to="112602526#5" />
    <trip id="t145" depart="145" from="165990904#0" to="23227421#2" />
    <trip id="t146" depart="146" from="134651154#1" to="50845223#1" />
    <trip id="t147" depart="147" from="37697586#0" to="-120248977#3" />
    <trip id="t148" depart="148" from="33439265#2" to="-14350228#0" />
    <trip id="t149" depart="149" from="31009600" to="60005026#1" />
    <trip id="t150" depart="150" from="51855671" to="23889203#0" />
    <trip id="t151" depart="151" from="145016432#3" to="39326491#0" />
    <trip id="t152" depart="152" from="-37335880" to="112175278#0" />
    <trip id="t153" depart="153" from="-164111026" to="-143117592" />
    <trip id="t154" depart="154" from="4929028#0" to="-53264702#5" />
    <trip id="t155" depart="155" from="-27625564#3" to="23227539#0" />
    <trip id="t156" depart="156" from="141634886#2" to="30663429#0" />
    <trip id="t157" depart="157" from="54643434#1" to="164111020#4" />
    <trip id="t158" depart="158" from="166532727#3" to="51855673#0" />
    <trip id="t159" depart="159" from="-120248977#0" to="-165419179" />
    <trip id="t160" depart="160" from="35875021#0" to="25096222#0" />
    <trip id="t161" depart="161" from="23227570" to="134765994#3" />
    <trip id="t162" depart="162" from="-160615609#1" to="-141634886#2" />
    <trip id="t163" depart="163" from="23331418#3" to="109301000#1" />
    <trip id="t164" depart="164" from="145019300#3" to="27626473#1" />
    <trip id="t165" depart="165" from="-120363505#4" to="-35875021#3" />
    <trip id="t166" depart="166" from="4494477#1" to="57742680#2" />
    <trip id="t167" depart="167" from="100183083" to="31825261" />
    <trip id="t168" depart="168" from="-164111029#1" to="4858684#2" />
    <trip id="t169" depart="169" from="37634347" to="-112602530" />
    <trip id="t170" depart="170" from="141633905#5" to="-46273840" />
    <trip id="t171" depart="171" from="54254385" to="43375972#0" />
    <trip id="t172" depart="172" from="-4494327#4" to="8167122" />
    <trip id="t173" depart="173" from="23227576#8" to="27638651#0" />
    <trip id="t174" depart="174" from="-145016429#1" to="57742681#2" />
    <trip id="t175" depart="175" from="134397744#0" to="79673985" />
    <trip id="t176" depart="176" from="53771529#0" to="147175293#2" />
    <trip id="t177" depart="177" from="4018825#6" to="28100366" />
    <trip id="t178" depart="178" from="37063198#1" to="165990910#1" />
    <trip id="t179" depart="179" from="145019295#0" to="115346437#0" />
    <trip id="t180" depart="180" from="27596085#0" to="163757278#0" />
    <trip id="t181" depart="181" from="-34411512#1" to="32263849#1" />
    <trip id="t182" depart="182" from="-27756044#0" to="164473832#0" />
    <trip id="t183" depart="183" from="145012768#5" to="134641361#1" />
    <trip id="t184" depart="184" from="-143274294#2" to="58666560#0" />
    <trip id="t185" depart="185" from="27755548#0" to="62091790#11" />
    <trip id="t186" depart="186" from="146079306" to="24606603#1" />
    <trip id="t187" depart="187" from="145014444#4" to="137135364#1" />
    <trip id="t188" depart="188" from="-4520095#0" to="139160775#0" />
    <trip id="t189" depart="189" from="-120458056" to="163757297#1" />
    <trip id="t190" depart="190" from="33080415#2" to="-4494327#1" />
    <trip id="t191" depart="191" from="37335403#0" to="46273840" />
    <trip id="t192" depart="192" from="-37337308#2" to="45178852" />
    <trip id="t193" depart="193" from="164473826#5" to="23978391#0" />
    <trip id="t194" depart="194" from="134397743#1" to="-120458051#1" />
    <trip id="t195" depart="195" from="23729251#1" to="164473826#1" />
    <trip id="t196" depart="196" from="-4868923" to="112602524#1" />
    <trip id="t197" depart="197" from="134407834#3" to="4868918#1" />
    <trip id="t198" depart="198" from="4018815#5" to="134235667#3" />
    <trip id="t199" depart="199" from="4018825#7" to="37335402#3" />
    <trip id="t200" depart="200" from="-43160119#1" to="120458056" />
    <trip id="t201" depart="201" from="-57742680#6" to="43015559" />
    <trip id="t202" depart="202" from="-121498334#1" to="4604994" />
    <trip id="t203" depart="203" from="4519678" to="30656121#1" />
    <trip id="t204" depart="204" from="146379326#2" to="4519601" />
    <trip id="t205" depart="205" from="-25816209#1" to="4868920" />
    <trip id="t206" depart="206" from="145018316#0" to="26613344#1" />
    <trip id="t207" depart="207" from="-26743563#2" to="37335594" />
    <trip id="t208" depart="208" from="27745990#1" to="58666558#4" />
    <trip id="t209" depart="209" from="4868925#0" to="149764465" />
    <trip id="t210" depart="210" from="37866295" to="44602943" />
    <trip id="t211" depart="211" from="149764465" to="8432343#0" />
    <trip id="t212" depart="212" from="27595966#0" to="-45178844" />
    <trip id="t213" depart="213" from="165990905#0" to="-23227404#5" />
    <trip id="t214" depart="214" from="4520063#2" to="164013604" />
    <trip id="t215" depart="215" from="-57742680#2" to="-27755975" />
    <trip id="t216" depart="216" from="164070448#2" to="53264702#0" />
    <trip id="t217" depart="217" from="-164013615#3" to="134238311#1" />
    <trip id="t218" depart="218" from="-165090425" to="164070449#1" />
    <trip id="t219" depart="219" from="37732892#0" to="-143117592" />
    <trip id="t220" depart="220" from="23227281#0" to="-27756067#1" />
    <trip id="t221" depart="221" from="-163757325#0" to="-134765991#4" />
    <trip id="t222" depart="222" from="30704082#2" to="-146537834" />
    <trip id="t223" depart="223" from="120458051#1" to="112175278#0" />
    <trip id="t224" depart="224" from="51855670#2" to="-164204874#1" />
    <trip id="t225" depart="225" from="-62091790#2" to="134407087#1" />
    <trip id="t226" depart="226" from="-39915679#2" to="-10516169" />
    <trip id="t227" depart="227" from="12543636#2" to="-142492944" />
    <trip id="t228" depart="228" from="115903502" to="-164111029#1" />
    <trip id="t229" depart="229" from="141634886#1" to="136990479#1" />
    <trip id="t230" depart="230" from="24971165#0" to="-45178844" />
    <trip id="t231" depart="231" from="145593785#0" to="-141634886#5" />
    <trip id="t232" depart="232" from="37733497#0" to="134553221#1" />
    <trip id="t233" depart="233" from="44602943" to="-32780446" />
    <trip id="t234" depart="234" from="115676657#0" to="15243397#1" />
    <trip id="t235" depart="235" from="-14350178#1" to="-166696470#0" />
    <trip id="t236" depart="236" from="-45178854" to="54643434#0" />
    <trip id="t237" depart="237" from="118373950" to="4868905#0" />
    <trip id="t238" depart="238" from="165090443#1" to="-115912118#0" />
    <trip id="t239" depart="239" from="23227334#1" to="27625564#1" />
    <trip id="t240" depart="240" from="4868910" to="-116344567" />
    <trip id="t241" depart="241" from="4494774#5" to="134407087#10" />
    <trip id="t242" depart="242" from="139764156" to="160709010" />
    <trip id="t243" depart="243" from="96017784" to="-14350178#1" />
    <trip id="t244" depart="244" from="-160615603" to="4683936#1" />
    <trip id="t245" depart="245" from="4494465" to="30656121#1" />
    <trip id="t246" depart="246" from="-44602670" to="160709010" />
    <trip id="t247" depart="247" from="26613344#1" to="39267984" />
    <trip id="t248" depart="248" from="-4877681" to="47034477#0" />
    <trip id="t249" depart="249" from="43015544" to="23227351" />
    <trip id="t250" depart="250" from="4868913" to="50845219#0" />
    <trip id="t251" depart="251" from="-142387173#1" to="44148005" />
    <trip id="t252" depart="252" from="-62091790#5" to="4018788#1" />
    <trip id="t253" depart="253" from="-142492943" to="51855669#3" />
    <trip id="t254" depart="254" from="58666563" to="35361323#3" />
    <trip id="t255" depart="255" from="141134526#1" to="-53896956" />
    <trip id="t256" depart="256" from="53771528#1" to="134407836#1" />
    <trip id="t257" depart="257" from="-112602526#1" to="43015611#0" />
    <trip id="t258" depart="258" from="4519602" to="4858693" />
    <trip id="t259" depart="259" from="5110266#0" to="114187491#0" />
    <trip id="t260" depart="260" from="165090431#3" to="24712098#0" />
    <trip id="t261" depart="261" from="89873766#1" to="4018825#1" />
    <trip id="t262" depart="262" from="-117085882" to="115908912#4" />
    <trip id="t263" depart="263" from="134397744#2" to="-23227404#7" />
    <trip id="t264" depart="264" from="115896297" to="37335402#2" />
    <trip id="t265" depart="265" from="134580469#1" to="-23227445" />
    <trip id="t266" depart="266" from="-39915680#2" to="53141858" />
    <trip id="t267" depart="267" from="37338857#0" to="27625564#0" />
    <trip id="t268" depart="268" from="62091790#8" to="53264702#4" />
    <trip id="t269" depart="269" from="160615610#2" to="163757282#0" />
    <trip id="t270" depart="270" from="32780443#0" to="4494327#0" />
    <trip id="t271" depart="271" from="-79673984" to="145469507" />
    <trip id="t272" depart="272" from="-53771528#0" to="-166623696#2" />
    <trip id="t273" depart="273" from="134765991#1" to="-22743856#0" />
    <trip id="t274" depart="274" from="23084178#2" to="43015611#3" />
    <trip id="t275" depart="275" from="146398630" to="-27745606" />
    <trip id="t276" depart="276" from="-27595967#2" to="165090435#0" />
    <trip id="t277" depart="277" from="4018845#0" to="142654415" />
    <trip id="t278" depart="278" from="134407087#10" to="-10516169" />
    <trip id="t279" depart="279" from="166039368#0" to="4520104#0" />
    <trip id="t280" depart="280" from="31009600" to="57744804#1" />
    <trip id="t281" depart="281" from="35875035#1" to="4519612#1" />
    <trip id="t282" depart="282" from="165090431#3" to="165090432#0" />
    <trip id="t283" depart="283" from="-134765994#0" to="28893947#0" />
    <trip id="t284" depart="284" from="23227404#5" to="-50845226#1" />
    <trip id="t285" depart="285" from="115908912#2" to="35875008#0" />
    <trip id="t286" depart="286" from="43160119#2" to="-140773473#1" />
    <trip id="t287" depart="287" from="120363505#1" to="162729497#0" />
    <trip id="t288" depart="288" from="23276697#0" to="120458051#3" />
    <trip id="t289" depart="289" from="116016604#0" to="-23330531#0" />
    <trip id="t290" depart="290" from="-4073513#1" to="-100183088" />
    <trip id="t291" depart="291" from="32013384#1" to="-23227671#1+23227576#2" />
    <trip id="t292" depart="292" from="112602526#2" to="-58666561#1" />
    <trip id="t293" depart="293" from="112060320#0" to="4868905#2" />
    <trip id="t294" depart="294" from="27745990#3" to="7980550" />
    <trip id="t295" depart="295" from="-53903492#0" to="37335403#1" />
    <trip id="t296" depart="296" from="146379325#0" to="27595967#2" />
    <trip id="t297" depart="297" from="33439272#1" to="-100183076" />
    <trip id="t298" depart="298" from="-120248977#2" to="-145019303#1" />
    <trip id="t299" depart="299" from="-164204874#0" to="-89873767" />
    <trip id="t300" depart="300" from="-111459944#0" to="166532727#1" />
    <trip id="t301" depart="301" from="-116045270" to="37733497#0" />
    <trip id="t302" depart="302" from="50845226#2" to="40491986#1" />
    <trip id="t303" depart="303" from="-163757278#0" to="145012768#2" />
    <trip id="t304" depart="304" from="115346441#0" to="-43015436#1" />
    <trip id="t305" depart="305" from="146379319#1" to="7980543#1" />
    <trip id="t306" depart="306" from="-27745990#3" to="165090426#0" />
    <trip id="t307" depart="307" from="37732892#1" to="143276335#0" />
    <trip id="t308" depart="308" from="-4494327#2" to="-22817819#0" />
    <trip id="t309" depart="309" from="23227334#2" to="23331502" />
    <trip id="t310" depart="310" from="53264702#8" to="4520077#2" />
    <trip id="t311" depart="311" from="-165090440" to="121498335" />
    <trip id="t312" depart="312" from="40980377" to="27595967#0" />
    <trip id="t313" depart="313" from="58666558#5" to="27626473#1" />
    <trip id="t314" depart="314" from="137135362" to="45178852" />
    <trip id="t315" depart="315" from="166623696#4" to="145019300#2" />
    <trip id="t316" depart="316" from="4520107#0" to="-85847370#2" />
    <trip id="t317" depart="317" from="-164111020#0" to="-147175277#0" />
    <trip id="t318" depart="318" from="37335879#0" to="57742680#2" />
    <trip id="t319" depart="319" from="58666563" to="10569218#2" />
    <trip id="t320" depart="320" from="134238311#2" to="-54160801#1" />
    <trip id="t321" depart="321" from="-26743565" to="-140773469" />
    <trip id="t322" depart="322" from="-100183083" to="-62091790#0" />
    <trip id="t323" depart="323" from="7980550" to="-8423865" />
    <trip id="t324" depart="324" from="134580469#5" to="4520048#1" />
    <trip id="t325" depart="325" from="145016432#5" to="164013604" />
    <trip id="t326" depart="326" from="30704082#0" to="120248977#1" />
    <trip id="t327" depart="327" from="-53141941#0" to="-24971163#2" />
    <trip id="t328" depart="328" from="43061432" to="-54160801#0" />
    <trip id="t329" depart="329" from="22743856#0" to="-53141914#1" />
    <trip id="t330" depart="330" from="44935513#0" to="25096212#2" />
    <trip id="t331" depart="331" from="165090435#1" to="25064447#0" />
    <trip id="t332" depart="332" from="134552889" to="165090435#0" />
    <trip id="t333" depart="333" from="145016429#3" to="32780443#1" />
    <trip id="t334" depart="334" from="43061150#0" to="4018845#0" />
    <trip id="t335" depart="335" from="53141940#1" to="-64343117" />
    <trip id="t336" depart="336" from="4494327#4" to="137134716#6" />
    <trip id="t337" depart="337" from="79673984" to="146536189#2" />
    <trip id="t338" depart="338" from="165990910#1" to="60005025#0" />
    <trip id="t339" depart="339" from="4519612#3" to="-43061361" />
    <trip id="t340" depart="340" from="-35361323#1" to="-115896301" />
    <trip id="t341" depart="341" from="134235048#6" to="145012681#9" />
    <trip id="t342" depart="342" from="-164473828" to="4012020#1" />
    <trip id="t343" depart="343" from="-120458052" to="39267984" />
    <trip id="t344" depart="344" from="56314379" to="118990868#2" />
    <trip id="t345" depart="345" from="147175268#1" to="-60005026#4" />
    <trip id="t346" depart="346" from="134651161#2" to="27756044#0" />
    <trip id="t347" depart="347" from="142492943" to="60005026#3" />
    <trip id="t348" depart="348" from="-27756045" to="-164070436#0" />
    <trip id="t349" depart="349" from="44028240#0" to="160615609#0" />
    <trip id="t350" depart="350" from="134550444#0" to="-4073513#0" />
    <trip id="t351" depart="351" from="-53264702#3" to="-23227480" />
    <trip id="t352" depart="352" from="-23227480" to="-23330531#0" />
    <trip id="t353" depart="353" from="30325860#4" to="115346437#4" />
    <trip id="t354" depart="354" from="57742680#6" to="-116044569#3" />
    <trip id="t355" depart="355" from="4018790#0" to="57742680#8" />
    <trip id="t356" depart="356" from="53771529#2" to="-57742681#0" />
    <trip id="t357" depart="357" from="32780253" to="-140773473#1" />
    <trip id="t358" depart="358" from="23227334#1" to="-4519603#2" />
    <trip id="t359" depart="359" from="-141134526#2" to="-53886624" />
    <trip id="t360" depart="360" from="7980620" to="-134765991#3" />
    <trip id="t361" depart="361" from="164111029#0" to="-45447070" />
    <trip id="t362" depart="362" from="23083969" to="-43290819#0" />
    <trip id="t363" depart="363" from="53141941#1" to="120458054#0" />
    <trip id="t364" depart="364" from="-32780444" to="163757314" />
    <trip id="t365" depart="365" from="4018838#1" to="24870095" />
    <trip id="t366" depart="366" from="-31009602#0" to="140751759#0" />
    <trip id="t367" depart="367" from="-44028240#0" to="27745603#2" />
    <trip id="t368" depart="368" from="-164111039#0" to="24815663" />
    <trip id="t369" depart="369" from="-57742680#9" to="-145014444#0" />
    <trip id="t370" depart="370" from="10753783#4" to="116044569#1" />
    <trip id="t371" depart="371" from="-142492945#0" to="-118373948#1" />
    <trip id="t372" depart="372" from="-139160986#0" to="165090435#2" />
    <trip id="t373" depart="373" from="-54643434#0" to="164013615#2" />
    <trip id="t374" depart="374" from="134641552" to="4519672" />
    <trip id="t375" depart="375" from="139609488" to="47076818#0" />
    <trip id="t376" depart="376" from="27756067#0" to="-23084079#2" />
    <trip id="t377" depart="377" from="24971163#1" to="146379315#4" />
    <trip id="t378" depart="378" from="-45178854" to="4857479#5" />
    <trip id="t379" depart="379" from="134580469#7" to="-57742680#9" />
    <trip id="t380" depart="380" from="88597659#0" to="37338980" />
    <trip id="t381" depart="381" from="4494327#4" to="-46273840" />
    <trip id="t382" depart="382" from="139764156" to="-111767977" />
    <trip id="t383" depart="383" from="96017796#2" to="-97828903" />
    <trip id="t384" depart="384" from="112610983" to="112610996" />
    <trip id="t385" depart="385" from="115896303#0" to="27626059#3" />
    <trip id="t386" depart="386" from="4868915#2" to="148126139" />
    <trip id="t387" depart="387" from="-32780254#0" to="134548710" />
    <trip id="t388" depart="388" from="-32780452" to="-111655184#1" />
    <trip id="t389" depart="389" from="23084109#1" to="164013615#3" />
    <trip id="t390" depart="390" from="79673985" to="28893947#0" />
    <trip id="t391" depart="391" from="145012768#5" to="-24971163#1" />
    <trip id="t392" depart="392" from="4520088#0" to="162729510" />
    <trip id="t393" depart="393" from="164111028" to="-27596760#1" />
    <trip id="t394" depart="394" from="134651158#0" to="163757303#1" />
    <trip id="t395" depart="395" from="4520048#1" to="51855670#0" />
    <trip id="t396" depart="396" from="111767974" to="24355460#0" />
    <trip id="t397" depart="397" from="-4520070" to="-145019303#1" />
    <trip id="t398" depart="398" from="10569217#1" to="166532726#0" />
    <trip id="t399" depart="399" from="51855670#0" to="4494774#7" />
    <trip id="t400" depart="400" from="43375972#3" to="89873766#2" />
    <trip id="t401" depart="401" from="134237091#0" to="165990905#1" />
    <trip id="t402" depart="402" from="-164013606" to="137191640#3" />
    <trip id="t403" depart="403" from="-23331418#3" to="-120458053" />
    <trip id="t404" depart="404" from="136990483#0" to="-22817819#1" />
    <trip id="t405" depart="405" from="156996315" to="35875010#3" />
    <trip id="t406" depart="406" from="34411514#0" to="53771529#2" />
    <trip id="t407" depart="407" from="-56349416#1" to="164070448#0" />
    <trip id="t408" depart="408" from="-139160783" to="160615610#0" />
    <trip id="t409" depart="409" from="112610979" to="4494801#2" />
    <trip id="t410" depart="410" from="53869268" to="4494327#2" />
    <trip id="t411" depart="411" from="164473826#0" to="-14350228#0" />
    <trip id="t412" depart="412" from="89873772#0" to="-23227478#0" />
    <trip id="t413" depart="413" from="-62091790#12" to="44935939" />
    <trip id="t414" depart="414" from="145019300#4" to="147175265#2" />
    <trip id="t415" depart="415" from="-56302955" to="37634056#1" />
    <trip id="t416" depart="416" from="-142492943" to="166039363#2" />
    <trip id="t417" depart="417" from="-53141945" to="23227473" />
    <trip id="t418" depart="418" from="37335878" to="32780449" />
    <trip id="t419" depart="419" from="14348297#6" to="4858693" />
    <trip id="t420" depart="420" from="-54254385" to="4868925#1" />
    <trip id="t421" depart="421" from="86059925#1" to="8132442#1" />
    <trip id="t422" depart="422" from="-111024969#2" to="-43375365" />
    <trip id="t423" depart="423" from="56935336" to="-146398619#0" />
    <trip id="t424" depart="424" from="164111029#0" to="27626059#0" />
    <trip id="t425" depart="425" from="143117590" to="136990480#2" />
    <trip id="t426" depart="426" from="89873766#0" to="-164111020#2" />
    <trip id="t427" depart="427" from="33439272#1" to="145016432#6" />